version 2
run General-0-20190301-15:48:59-30667
attr configname General
attr datetime 20190301-15:48:59
attr experiment General
attr inifile omnetpp.ini
attr iterationvars ""
attr iterationvarsf ""
attr measurement ""
attr network sdn_network
attr processid 30667
attr repetition 0
attr replication #0
attr resultdir results
attr runnumber 0
attr seedset 0
param sdn_network.switches[*].transmissionDelay "truncnormal(50, 30)"
param sdn_network.switches[*].queuingDelay "truncnormal(50, 30)"
param sdn_network.switches[*].loss "truncnormal(0.1, 0.11)"
param sdn_network.switches[*].availableBandwidth "uniform(1, 101)"
param sdn_network.switches[*].totalBandwidth "uniform(1, 101)"

vector 0 sdn_network.switches[11] hopCount:vector ETV
attr interpolationmode none
attr source arrival
attr title "hop count, vector"
vector 1 sdn_network.switches[9] hopCount:vector ETV
attr interpolationmode none
attr source arrival
attr title "hop count, vector"
vector 2 sdn_network.switches[6] hopCount:vector ETV
attr interpolationmode none
attr source arrival
attr title "hop count, vector"
vector 3 sdn_network.switches[1] hopCount:vector ETV
attr interpolationmode none
attr source arrival
attr title "hop count, vector"
vector 4 sdn_network.switches[10] hopCount:vector ETV
attr interpolationmode none
attr source arrival
attr title "hop count, vector"
vector 5 sdn_network.switches[2] hopCount:vector ETV
attr interpolationmode none
attr source arrival
attr title "hop count, vector"
vector 6 sdn_network.switches[12] hopCount:vector ETV
attr interpolationmode none
attr source arrival
attr title "hop count, vector"
vector 7 sdn_network.switches[7] hopCount:vector ETV
attr interpolationmode none
attr source arrival
attr title "hop count, vector"
vector 8 sdn_network.switches[8] hopCount:vector ETV
attr interpolationmode none
attr source arrival
attr title "hop count, vector"
vector 9 sdn_network.switches[5] hopCount:vector ETV
attr interpolationmode none
attr source arrival
attr title "hop count, vector"
vector 10 sdn_network.switches[0] hopCount:vector ETV
attr interpolationmode none
attr source arrival
attr title "hop count, vector"
vector 11 sdn_network.switches[4] hopCount:vector ETV
attr interpolationmode none
attr source arrival
attr title "hop count, vector"
vector 12 sdn_network.switches[3] hopCount:vector ETV
attr interpolationmode none
attr source arrival
attr title "hop count, vector"
0	66	2.6	6
0	156	6.6	5
0	297	12.9	2
0	383	16.8	4
0	538	23.7	1
0	1368	60.5	4
0	1656	73.9	1
0	1758	78.6	3
0	1929	84.4	5
0	2282	92.7	2
0	2336	94	2
0	2650	101.4	1
0	2848	106.1	1
0	2892	107.1	1
0	2931	108.1	4
0	3021	110.2	3
0	3105	112.3	4
0	3355	118.1	2
0	3369	118.4	4
0	3525	122.2	2
0	3541	122.6	2
0	3698	126.4	1
0	3730	127.2	3
0	3754	127.8	3
0	3906	131.6	2
0	3988	133.7	1
0	4122	137	2
0	4197	138.8	2
0	4203	139	4
0	4299	141.4	2
0	4347	142.6	5
0	4811	154.1	2
0	4833	154.7	2
0	4897	156.3	3
0	4929	157.1	3
0	4984	158.5	5
0	4998	158.8	5
0	5048	160.1	5
0	5120	161.9	2
0	5138	162.3	2
0	5260	165.4	5
0	5332	167.2	1
0	5370	168.1	2
0	5386	168.5	2
0	5436	169.8	4
0	5842	179.9	4
0	5860	180.4	3
0	6124	187	5
0	6162	187.9	3
0	6248	190.1	2
0	6342	192.4	2
0	6398	193.8	3
0	6422	194.4	3
0	6690	201	1
0	6708	201.5	4
0	6762	202.8	3
0	6768	203	4
0	6818	204.2	1
0	6866	205.4	4
0	7016	209.2	3
0	7022	209.3	4
0	7064	210.4	4
0	7186	213.4	2
0	7252	215.1	5
0	7300	216.3	1
0	7418	219.2	1
0	7476	220.7	2
0	7652	225.1	5
0	7784	228.4	4
0	7816	229.2	4
0	7910	231.5	5
0	8096	236.2	2
0	8364	242.9	4
0	8420	244.3	3
0	8490	246	3
0	8512	246.6	4
0	8522	246.8	4
0	8556	247.7	4
0	8596	248.7	3
0	8810	254	1
0	8818	254.2	1
0	9118	261.7	2
0	9364	267.9	2
0	9404	268.9	4
0	9450	270	2
0	9452	270.1	1
0	9556	272.7	4
0	9660	275.3	1
0	9698	276.2	4
0	9838	279.7	2
0	9856	280.2	5
0	9942	282.3	2
0	9978	283.2	4
0	10234	289.6	1
0	10274	290.6	3
0	10402	293.8	2
0	10602	298.8	3
0	10612	299.1	3
0	10642	299.8	2
0	10754	302.6	2
0	10912	306.6	2
0	10934	307.1	1
0	11094	311.1	2
0	11150	312.5	2
0	11318	316.7	3
0	11326	316.9	1
0	11528	322	4
0	11592	323.6	2
0	11594	323.6	3
0	11730	327	5
0	11740	327.3	3
0	11858	330.2	3
0	11952	332.6	3
0	12006	333.9	2
0	12262	340.3	1
0	12420	344.3	1
0	12478	345.7	3
0	12500	346.3	3
0	12548	347.5	1
0	12554	347.6	2
0	12690	351	2
0	12768	353	4
0	12782	353.3	4
0	12838	354.7	4
0	12890	356	2
0	12964	357.9	5
0	13090	361	3
0	13146	362.4	3
0	13170	363	3
0	13412	369.1	5
0	13450	370	1
0	13556	372.7	3
0	13594	373.6	3
0	14084	385.9	1
0	14208	389	1
0	14240	389.8	4
0	14270	390.5	2
0	14360	392.8	5
0	14428	394.5	4
0	14506	396.4	3
0	14562	397.8	4
0	14568	398	2
0	14704	401.4	3
0	14734	402.1	5
0	14782	403.3	2
0	14880	405.8	3
0	14970	408	3
0	15044	409.9	3
0	15198	413.7	4
0	15212	414.1	4
0	15424	419.4	4
0	15498	421.2	4
0	15644	424.9	1
0	15778	428.2	4
0	15780	428.3	3
0	15852	430.1	1
0	16034	434.6	4
0	16136	437.2	2
0	16188	438.5	3
0	16368	443	5
0	16456	445.2	4
0	16632	449.6	4
0	16882	455.8	2
0	16928	457	3
0	16962	457.8	2
0	16984	458.4	4
0	17026	459.4	2
0	17044	459.9	2
0	17158	462.7	1
0	17220	464.3	4
0	17260	465.3	3
0	17342	467.3	1
0	17398	468.7	3
0	17416	469.2	3
0	17424	469.4	1
0	17446	469.9	1
0	17552	472.6	2
0	17578	473.2	5
0	17592	473.6	3
0	17782	478.3	2
0	17870	480.5	3
0	18024	484.4	2
0	18096	486.2	3
0	18110	486.5	3
0	18204	488.9	3
0	18352	492.6	4
0	18486	495.9	3
0	18558	497.7	3
0	18668	500.5	4
0	18794	503.6	3
0	18880	505.8	4
0	18882	505.8	1
0	18994	508.6	3
0	19054	510.1	4
0	19214	514.1	1
0	19390	518.5	4
0	19400	518.8	1
0	19440	519.8	4
0	19470	520.5	2
0	19504	521.4	1
0	19572	523.1	4
0	19658	525.2	1
0	19814	529.1	3
0	19816	529.2	3
0	19884	530.9	4
0	19932	532.1	5
0	20006	533.9	3
0	20086	535.9	2
0	20184	538.4	2
0	20230	539.5	2
0	20360	542.8	2
0	20656	550.2	4
0	20816	554.2	3
0	21084	560.9	4
0	21150	562.5	4
0	21366	567.9	3
0	21408	569	4
0	21414	569.1	2
0	21518	571.7	2
0	21564	572.9	1
0	21580	573.3	2
0	21620	574.3	3
0	21714	576.6	5
0	21872	580.6	5
0	21874	580.6	4
0	21922	581.8	1
0	21984	583.4	1
0	22072	585.6	1
0	22112	586.6	3
0	22432	594.6	1
0	22448	595	2
0	22600	598.8	4
0	22670	600.5	3
0	22894	606.1	2
0	22934	607.1	4
0	22994	608.6	1
0	23024	609.4	2
0	23058	610.2	3
0	23318	616.7	1
0	23370	618	2
0	23380	618.3	1
0	23404	618.9	2
0	23492	621.1	4
0	23538	622.2	3
0	23922	631.8	3
0	23924	631.9	5
0	23980	633.3	3
0	23994	633.6	5
0	24012	634.1	4
0	24076	635.7	5
0	24138	637.2	2
0	24322	641.8	3
0	24348	642.5	1
0	24364	642.9	2
0	24402	643.8	2
0	24424	644.4	1
0	24572	648.1	4
0	24618	649.2	3
0	24912	656.6	2
0	25012	659.1	4
0	25022	659.3	2
0	25340	667.3	3
0	25512	671.6	5
0	25590	673.5	2
0	25640	674.8	1
0	25646	674.9	2
0	25688	676	5
0	25728	677	3
0	25736	677.2	1
0	25790	678.5	4
0	25834	679.6	4
0	25936	682.2	2
0	25990	683.5	1
0	26036	684.7	4
0	26076	685.7	2
0	26160	687.8	3
0	26462	695.3	5
0	26708	701.5	3
0	26710	701.5	4
0	26970	708	1
0	27044	709.9	3
0	27100	711.3	3
0	27168	713	1
0	27192	713.6	3
0	27240	714.8	4
0	27250	715	1
0	27300	716.3	3
0	27440	719.8	3
0	27600	723.8	3
0	27706	726.4	2
0	27818	729.2	3
0	27862	730.3	3
0	27878	730.7	1
0	28114	736.6	3
0	28262	740.3	1
0	28406	743.9	3
0	28656	750.2	2
0	28718	751.7	1
0	28720	751.8	2
0	28940	757.3	3
0	28988	758.5	3
0	29010	759	3
0	29124	761.9	1
0	29180	763.3	4
0	29212	764.1	4
0	29308	766.5	1
0	29392	768.6	2
0	29448	770	1
0	29584	773.4	3
0	29618	774.2	3
0	29752	777.6	1
0	29800	778.8	2
0	29842	779.8	2
0	29848	780	5
0	30278	790.7	4
0	30460	795.3	2
0	30502	796.3	2
0	30728	802	4
0	31008	809	5
0	31094	811.1	1
0	31220	814.3	2
0	31226	814.4	4
0	31276	815.7	2
0	31326	816.9	4
0	31430	819.5	2
0	31538	822.2	4
0	31576	823.2	5
0	31610	824	5
0	31676	825.7	3
0	31778	828.2	3
0	31876	830.7	3
0	31984	833.4	4
0	32000	833.8	2
0	32010	834	3
0	32190	838.5	2
0	32328	842	3
0	32522	846.8	3
0	32932	857.1	2
0	33140	862.3	3
0	33318	866.7	5
0	33412	869.1	3
0	33474	870.6	3
0	33476	870.7	4
0	33522	871.8	2
0	33724	876.9	4
0	33780	878.3	3
0	33812	879.1	1
0	33830	879.5	3
0	33868	880.5	1
0	33916	881.7	5
0	34154	887.6	2
0	34210	889	2
0	34250	890	3
0	34264	890.4	3
0	34322	891.8	4
0	34352	892.6	3
0	34506	896.4	4
0	34572	898.1	2
0	34638	899.7	2
0	34686	900.9	4
0	34788	903.5	5
0	34872	905.6	4
0	34944	907.4	5
0	34954	907.6	2
0	35046	909.9	3
0	35176	913.2	4
0	35224	914.4	5
0	35282	915.8	1
0	35398	918.7	4
0	35644	924.9	4
0	35678	925.7	3
0	35978	933.2	4
0	36114	936.6	2
0	36148	937.5	2
0	36182	938.3	1
0	36212	939.1	1
0	36250	940	4
0	36274	940.6	3
0	36316	941.7	4
0	36358	942.7	4
0	36456	945.2	4
0	36550	947.5	4
0	36648	950	3
0	36710	951.5	2
0	36830	954.5	4
0	36900	956.3	1
0	37032	959.6	3
0	37050	960	2
0	37196	963.7	4
0	37226	964.4	2
0	37272	965.6	2
0	37274	965.6	2
0	37406	968.9	1
0	37436	969.7	3
0	37598	973.7	5
0	37888	981	3
0	37952	982.6	3
0	38110	986.5	3
0	38126	986.9	2
0	38284	990.9	1
0	38338	992.2	1
0	38418	994.2	4
0	38420	994.3	3
0	38476	995.7	4
0	38780	1003.3	4
0	38798	1003.7	1
0	38862	1005.3	2
0	38900	1006.3	4
0	38932	1007.1	3
0	39032	1009.6	4
0	39130	1012	2
0	39204	1013.9	3
0	39256	1015.2	5
0	39296	1016.2	3
0	39356	1017.7	3
0	39470	1020.5	2
0	39626	1024.4	1
0	39658	1025.2	3
0	39674	1025.6	2
0	39730	1027	2
0	39772	1028.1	4
0	39866	1030.4	4
0	39902	1031.3	4
0	39948	1032.5	4
0	40046	1034.9	4
0	40154	1037.6	4
0	40224	1039.4	2
0	40248	1040	2
0	40348	1042.5	2
0	40508	1046.5	1
0	40532	1047.1	3
0	40646	1049.9	5
0	40672	1050.6	1
0	40754	1052.6	3
0	40768	1053	1
0	40826	1054.4	1
0	40832	1054.6	1
0	40944	1057.4	4
0	40946	1057.4	1
0	41008	1059	3
0	41210	1064	4
0	41328	1067	2
0	41386	1068.4	5
0	41454	1070.1	3
0	41548	1072.5	3
0	41564	1072.9	2
0	41654	1075.1	3
0	41708	1076.5	2
0	41714	1076.6	4
0	41794	1078.6	3
0	41812	1079.1	5
0	42194	1088.6	2
0	42272	1090.6	3
0	42278	1090.7	1
0	42474	1095.6	2
0	42480	1095.8	1
0	42576	1098.2	3
0	42628	1099.5	3
0	42780	1103.3	1
0	42888	1106	4
0	42894	1106.1	3
0	43118	1111.7	4
0	43202	1113.8	5
0	43252	1115.1	4
0	43382	1118.3	2
0	43396	1118.7	4
0	43492	1121.1	1
0	43612	1124.1	2
0	43636	1124.7	1
0	43734	1127.1	4
0	43808	1129	4
0	43860	1130.3	4
0	43998	1133.7	1
0	44022	1134.3	2
0	44082	1135.8	3
0	44122	1136.8	3
0	44280	1140.8	2
0	44356	1142.7	4
0	44616	1149.2	2
0	44654	1150.1	4
0	44656	1150.2	2
0	44696	1151.2	1
0	45048	1160	5
0	45280	1165.8	4
0	45320	1166.8	3
0	45492	1171.1	4
0	45600	1173.8	2
0	45642	1174.8	2
0	45924	1181.9	5
0	46062	1185.3	2
0	46088	1186	4
0	46118	1186.7	1
0	46156	1187.7	1
0	46190	1188.5	2
0	46264	1190.4	4
0	46432	1194.6	4
0	46648	1200	2
0	46666	1200.4	3
0	46926	1206.9	3
0	47094	1211.1	3
0	47186	1213.4	3
0	47304	1216.4	2
0	47330	1217	3
0	47370	1218	4
0	47414	1219.1	4
0	47432	1219.6	3
0	47698	1226.2	1
0	47722	1226.8	2
0	47764	1227.9	2
0	47856	1230.2	2
0	47864	1230.4	1
0	47874	1230.6	1
0	47920	1231.8	2
0	48008	1234	1
0	48030	1234.5	2
0	48060	1235.3	4
0	48300	1241.3	2
0	48302	1241.3	2
0	48324	1241.9	3
0	48438	1244.7	4
0	48608	1249	2
0	48648	1250	3
0	48750	1252.5	4
0	48800	1253.8	3
0	48816	1254.2	2
0	48896	1256.2	2
0	48898	1256.2	5
0	48906	1256.4	1
0	48992	1258.6	1
0	49008	1259	1
0	49162	1262.8	2
0	49194	1263.6	4
0	49210	1264	2
0	49316	1266.7	3
0	49500	1271.3	2
0	49588	1273.5	4
0	49650	1275	4
0	49690	1276	3
0	49844	1279.9	5
0	49926	1281.9	4
0	50146	1287.4	2
0	50212	1289.1	3
0	50274	1290.6	1
0	50322	1291.8	2
0	50402	1293.8	3
0	50416	1294.2	4
0	50434	1294.6	3
0	50458	1295.2	3
0	50588	1298.5	5
0	50698	1301.2	2
0	50892	1306.1	1
0	50910	1306.5	3
0	50986	1308.4	4
0	50988	1308.5	1
0	51062	1310.3	2
0	51160	1312.8	4
0	51270	1315.5	1
0	51300	1316.3	4
0	51340	1317.3	4
0	51414	1319.1	1
0	51512	1321.6	4
0	51576	1323.2	3
0	51622	1324.3	5
0	51688	1326	4
0	51728	1327	2
0	51736	1327.2	1
0	51870	1330.5	4
0	52022	1334.3	1
0	52130	1337	5
0	52160	1337.8	4
0	52224	1339.4	2
0	52254	1340.1	5
0	52256	1340.2	3
0	52356	1342.7	5
0	52398	1343.7	3
0	52552	1347.6	2
0	52586	1348.4	3
0	52648	1350	4
0	52698	1351.2	3
0	52704	1351.4	2
0	52786	1353.4	3
0	52930	1357	3
0	52946	1357.4	2
0	52964	1357.9	3
0	53020	1359.3	5
0	53152	1362.6	1
0	53192	1363.6	3
0	53238	1364.7	4
0	53244	1364.9	4
0	53322	1366.8	1
0	53386	1368.4	5
0	53630	1374.5	4
0	53680	1375.8	1
0	53702	1376.3	4
0	53826	1379.4	4
0	53996	1383.7	4
0	54108	1386.5	3
0	54110	1386.5	4
0	54170	1388	1
0	54328	1392	5
0	54362	1392.8	4
0	54372	1393.1	2
0	54410	1394	1
0	54464	1395.4	3
0	54514	1396.6	1
0	54558	1397.7	4
0	54792	1403.6	2
0	54794	1403.6	2
0	55068	1410.5	1
0	55162	1412.8	2
0	55188	1413.5	4
0	55204	1413.9	2
0	55334	1417.1	3
0	55434	1419.6	2
0	55440	1419.8	3
0	55466	1420.4	4
0	55518	1421.7	3
0	55582	1423.3	2
0	55614	1424.1	3
0	55646	1424.9	3
0	55700	1426.3	3
0	55764	1427.9	4
0	55820	1429.3	2
0	55826	1429.4	3
0	55900	1431.3	2
0	55952	1432.6	3
0	56000	1433.8	3
0	56038	1434.7	5
0	56202	1438.8	4
0	56250	1440	2
0	56432	1444.6	5
0	56488	1446	2
0	56490	1446	1
0	56506	1446.4	1
0	56584	1448.4	3
0	56614	1449.1	2
0	56624	1449.4	3
0	56630	1449.5	2
0	56648	1450	2
0	56756	1452.7	4
0	56798	1453.7	3
0	56820	1454.3	5
0	56838	1454.7	4
0	57050	1460	4
0	57306	1466.4	4
0	57440	1469.8	4
0	57474	1470.6	2
0	57532	1472.1	4
0	57616	1474.2	2
0	57694	1476.1	1
0	57764	1477.9	4
0	57818	1479.2	3
0	57986	1483.4	4
0	58046	1484.9	4
0	58118	1486.7	5
0	58258	1490.2	2
0	58404	1493.9	3
0	58502	1496.3	1
0	58582	1498.3	3
0	58656	1500.2	2
0	58706	1501.4	4
0	58746	1502.4	1
0	58790	1503.5	3
0	58820	1504.3	5
0	58838	1504.7	3
0	58894	1506.1	3
0	58934	1507.1	1
0	59156	1512.7	4
0	59328	1517	3
0	59566	1522.9	4
0	59726	1526.9	2
0	59752	1527.6	1
0	59782	1528.3	1
0	59846	1529.9	3
0	59912	1531.6	3
0	59988	1533.5	5
0	60110	1536.5	4
0	60112	1536.6	4
0	60158	1537.7	4
0	60332	1542.1	2
0	60338	1542.2	4
0	60378	1543.2	4
0	60412	1544.1	3
0	60418	1544.2	3
0	60428	1544.5	2
0	60610	1549	4
0	60636	1549.7	4
0	60700	1551.3	3
0	60788	1553.5	4
0	60828	1554.5	4
0	60896	1556.2	1
0	60906	1556.4	3
0	60944	1557.4	5
0	61056	1560.2	1
0	61058	1560.2	3
0	61080	1560.8	3
0	61106	1561.4	5
0	61282	1565.8	5
0	61296	1566.2	1
0	61418	1569.2	3
0	61424	1569.4	3
0	61500	1571.3	3
0	61542	1572.3	3
0	61548	1572.5	5
0	61708	1576.5	4
0	61746	1577.4	5
0	61798	1578.7	4
0	61830	1579.5	4
0	61862	1580.3	2
0	61894	1581.1	1
0	61976	1583.2	3
0	62034	1584.6	4
0	62098	1586.2	2
0	62120	1586.8	1
0	62248	1590	2
0	62312	1591.6	5
0	62370	1593	2
0	62376	1593.2	2
0	62432	1594.6	4
0	62584	1598.4	2
0	62674	1600.6	2
0	62794	1603.6	3
0	62810	1604	2
0	62890	1606	2
0	62898	1606.2	1
0	62904	1606.4	3
0	62930	1607	2
0	62962	1607.8	2
0	63058	1610.2	4
0	63072	1610.6	3
0	63112	1611.6	4
0	63280	1615.8	1
0	63298	1616.2	3
0	63392	1618.6	2
0	63440	1619.8	5
0	63616	1624.2	4
0	63694	1626.1	1
0	63780	1628.3	3
0	63880	1630.8	2
0	63946	1632.4	2
0	64074	1635.6	1
0	64130	1637	2
0	64160	1637.8	4
0	64284	1640.9	4
0	64482	1645.8	1
0	64602	1648.8	3
0	64698	1651.2	5
0	64790	1653.5	1
0	64904	1656.4	5
0	64926	1656.9	2
0	65010	1659	3
0	65034	1659.6	3
0	65074	1660.6	3
0	65098	1661.2	3
0	65106	1661.4	1
0	65130	1662	3
0	65170	1663	2
0	65180	1663.3	4
0	65236	1664.7	2
0	65308	1666.5	4
0	65442	1669.8	2
0	65464	1670.4	2
0	65616	1674.2	1
0	65780	1678.3	3
0	65884	1680.9	1
0	65984	1683.4	2
0	66064	1685.4	4
0	66080	1685.8	2
0	66190	1688.5	2
0	66374	1693.1	2
0	66438	1694.7	5
0	66656	1700.2	4
0	66714	1701.6	3
0	66728	1702	5
0	66738	1702.2	3
0	66832	1704.6	1
0	66858	1705.2	5
0	66896	1706.2	4
0	66960	1707.8	5
0	67008	1709	5
0	67054	1710.1	2
0	67180	1713.3	4
0	67304	1716.4	3
0	67328	1717	3
0	67432	1719.6	3
0	67448	1720	2
0	67466	1720.4	1
0	67544	1722.4	2
0	67552	1722.6	1
0	67562	1722.8	3
0	67576	1723.2	2
0	67674	1725.6	1
0	67794	1728.6	1
0	67960	1732.8	1
0	68256	1740.2	1
0	68294	1741.1	4
0	68320	1741.8	3
0	68386	1743.4	3
0	68434	1744.6	3
0	68532	1747.1	3
0	68542	1747.3	5
0	68584	1748.4	2
0	68996	1758.7	4
0	69126	1761.9	5
0	69158	1762.7	4
0	69276	1765.7	1
0	69342	1767.3	3
0	69406	1768.9	2
0	69492	1771.1	1
0	69574	1773.1	1
0	69738	1777.2	4
0	69884	1780.9	5
0	70010	1784	2
0	70044	1784.9	3
0	70074	1785.6	4
0	70270	1790.5	3
0	70334	1792.1	1
0	70384	1793.4	5
0	70426	1794.4	3
0	70442	1794.8	2
0	70522	1796.8	5
0	70622	1799.3	2
0	70624	1799.4	2
0	70672	1800.6	2
0	70678	1800.7	2
0	70726	1801.9	4
0	70792	1803.6	5
0	70862	1805.3	3
0	70922	1806.8	4
0	70976	1808.2	3
0	71048	1810	3
0	71082	1810.8	3
0	71152	1812.6	3
0	71224	1814.4	2
0	71242	1814.8	3
0	71314	1816.6	3
0	71390	1818.5	4
1	75	3.1	1
1	177	7.7	1
1	536	23.6	1
1	639	28	7
1	676	29.8	1
1	1115	49	1
1	1296	57	7
1	1322	58.2	1
1	1553	69	3
1	1870	82.9	5
1	1888	83.3	6
1	2068	87.7	1
1	2128	89.1	5
1	2146	89.5	4
1	2616	100.5	2
1	2714	103	5
1	2730	103.4	2
1	2854	106.2	1
1	2887	107	2
1	2909	107.6	2
1	3095	112	3
1	3109	112.4	1
1	3333	117.5	2
1	3459	120.6	2
1	3495	121.5	5
1	3531	122.4	3
1	3545	122.7	1
1	3720	127	1
1	3838	129.9	2
1	3932	132.3	4
1	3958	132.9	5
1	4094	136.3	1
1	4233	139.7	3
1	4475	145.8	1
1	4501	146.4	1
1	4507	146.6	3
1	4640	149.8	2
1	4648	150	1
1	4701	151.4	2
1	4703	151.4	2
1	4837	154.8	1
1	4855	155.2	2
1	4903	156.4	1
1	5182	163.4	4
1	5480	170.9	1
1	5538	172.3	1
1	5690	176.1	2
1	5722	176.9	3
1	5730	177.1	1
1	5906	181.5	2
1	5968	183.1	3
1	6016	184.3	4
1	6210	189.1	1
1	6308	191.6	1
1	6330	192.1	3
1	6340	192.4	1
1	6424	194.5	1
1	6434	194.7	1
1	6460	195.4	5
1	6474	195.7	3
1	6490	196.1	2
1	6686	200.9	2
1	6822	204.3	1
1	6924	206.9	4
1	7204	213.9	2
1	7288	216	2
1	7342	217.3	2
1	7406	218.9	1
1	7438	219.7	2
1	7464	220.4	2
1	7478	220.7	3
1	7488	221	2
1	7558	222.7	1
1	7574	223.1	2
1	7590	223.5	2
1	7600	223.8	2
1	7654	225.1	2
1	7706	226.4	5
1	7790	228.5	2
1	7946	232.4	2
1	8042	234.8	2
1	8090	236	1
1	8150	237.5	5
1	8152	237.6	3
1	8174	238.1	3
1	8214	239.1	4
1	8258	240.2	2
1	8288	241	1
1	8382	243.3	3
1	8422	244.3	2
1	8468	245.5	5
1	8516	246.7	1
1	8598	248.7	3
1	8670	250.5	1
1	8814	254.1	1
1	8822	254.3	1
1	8892	256.1	4
1	8998	258.7	2
1	9046	259.9	3
1	9270	265.5	5
1	9302	266.3	3
1	9344	267.4	1
1	9438	269.7	3
1	9454	270.1	1
1	9480	270.8	2
1	9496	271.2	1
1	9648	275	1
1	9744	277.4	4
1	9804	278.9	1
1	9890	281	4
1	9968	283	1
1	10100	286.3	1
1	10246	289.9	1
1	10252	290.1	3
1	10332	292.1	3
1	10350	292.5	3
1	10356	292.7	2
1	10534	297.1	1
1	10692	301.1	5
1	10724	301.9	3
1	10734	302.1	3
1	10884	305.9	2
1	10956	307.7	4
1	11000	308.8	3
1	11100	311.3	2
1	11106	311.4	2
1	11194	313.6	3
1	11300	316.3	2
1	11404	318.9	3
1	11426	319.4	2
1	11580	323.3	5
1	11694	326.1	2
1	11750	327.5	1
1	11894	331.1	3
1	11904	331.4	3
1	12096	336.2	2
1	12120	336.8	1
1	12210	339	5
1	12218	339.2	1
1	12314	341.6	1
1	12416	344.2	2
1	12544	347.4	4
1	12652	350.1	1
1	12772	353.1	1
1	13100	361.3	1
1	13136	362.2	5
1	13294	366.1	4
1	13318	366.7	3
1	13472	370.6	1
1	13506	371.4	1
1	13546	372.4	2
1	13640	374.8	3
1	13734	377.1	5
1	13796	378.7	1
1	13812	379.1	2
1	13830	379.5	3
1	13894	381.1	1
1	13982	383.3	2
1	14048	385	3
1	14078	385.7	3
1	14114	386.6	5
1	14218	389.2	2
1	14258	390.2	2
1	14572	398.1	1
1	14974	408.1	1
1	15042	409.8	5
1	15202	413.8	1
1	15256	415.2	2
1	15310	416.5	5
1	15496	421.2	2
1	15550	422.5	1
1	15640	424.8	4
1	15738	427.2	4
1	15848	430	1
1	15864	430.4	2
1	16000	433.8	1
1	16076	435.7	4
1	16190	438.5	5
1	16382	443.3	1
1	16486	445.9	2
1	16504	446.4	1
1	16676	450.7	2
1	16756	452.7	1
1	16790	453.5	2
1	16812	454.1	5
1	16886	455.9	1
1	16988	458.5	1
1	17004	458.9	1
1	17090	461	5
1	17154	462.6	1
1	17396	468.7	5
1	17490	471	3
1	17596	473.7	1
1	17620	474.3	3
1	17768	478	1
1	17808	479	4
1	17842	479.8	2
1	17892	481.1	2
1	17924	481.9	2
1	17948	482.5	3
1	18006	483.9	3
1	18036	484.7	1
1	18252	490.1	3
1	18320	491.8	5
1	18418	494.2	1
1	18622	499.3	5
1	18628	499.5	1
1	18666	500.4	3
1	18878	505.7	2
1	18974	508.1	3
1	19004	508.9	2
1	19012	509.1	1
1	19120	511.8	4
1	19204	513.9	1
1	19268	515.5	5
1	19298	516.2	3
1	19330	517	2
1	19348	517.5	1
1	19410	519	2
1	19498	521.2	2
1	19522	521.8	1
1	19570	523	1
1	19654	525.1	5
1	19662	525.3	1
1	19692	526.1	1
1	19746	527.4	2
1	19984	533.4	1
1	20024	534.4	4
1	20076	535.7	3
1	20218	539.2	2
1	20286	540.9	1
1	20492	546.1	2
1	20590	548.5	1
1	20638	549.7	2
1	20692	551.1	3
1	20796	553.7	2
1	20866	555.4	4
1	20898	556.2	4
1	20964	557.9	2
1	21050	560	2
1	21132	562.1	5
1	21250	565	1
1	21252	565.1	3
1	21348	567.5	4
1	21656	575.2	2
1	21728	577	2
1	21742	577.3	1
1	21980	583.3	4
1	22032	584.6	2
1	22068	585.5	5
1	22086	585.9	1
1	22202	588.8	2
1	22228	589.5	3
1	22288	591	5
1	22378	593.2	3
1	22396	593.7	3
1	22618	599.2	2
1	22628	599.5	1
1	22664	600.4	5
1	22680	600.8	2
1	22718	601.7	5
1	22808	604	2
1	22844	604.9	5
1	22998	608.7	1
1	23038	609.7	4
1	23220	614.3	2
1	23376	618.2	3
1	23504	621.4	1
1	23650	625	2
1	23958	632.7	3
1	24046	634.9	2
1	24088	636	1
1	24142	637.3	1
1	24152	637.6	1
1	24178	638.2	5
1	24258	640.2	4
1	24374	643.1	1
1	24420	644.3	2
1	24446	644.9	2
1	24584	648.4	1
1	24734	652.1	1
1	24844	654.9	3
1	24972	658.1	2
1	25098	661.2	3
1	25252	665.1	2
1	25580	673.3	3
1	25732	677.1	1
1	25986	683.4	2
1	26154	687.6	1
1	26282	690.8	1
1	26330	692	3
1	26346	692.4	2
1	26426	694.4	1
1	26460	695.3	3
1	26492	696.1	1
1	26556	697.7	2
1	26578	698.2	1
1	26646	699.9	5
1	26660	700.3	2
1	26864	705.4	5
1	26914	706.6	3
1	27038	709.7	2
1	27212	714.1	2
1	27304	716.4	1
1	27382	718.3	2
1	27502	721.3	1
1	27540	722.3	3
1	27598	723.7	2
1	27720	726.8	2
1	27866	730.4	1
1	27914	731.6	2
1	28002	733.8	2
1	28248	740	2
1	28258	740.2	1
1	28304	741.4	2
1	28346	742.4	1
1	28392	743.6	1
1	28458	745.2	2
1	28660	750.3	1
1	28764	752.9	4
1	28780	753.3	2
1	28826	754.4	4
1	28912	756.6	2
1	28920	756.8	1
1	29062	760.3	3
1	29102	761.3	2
1	29182	763.3	4
1	29232	764.6	2
1	29248	765	1
1	29336	767.2	1
1	29444	769.9	2
1	29648	775	1
1	29694	776.1	5
1	29894	781.1	2
1	29918	781.7	1
1	30106	786.4	2
1	30334	792.1	1
1	30372	793.1	3
1	30412	794.1	2
1	30530	797	3
1	30678	800.7	1
1	30858	805.2	2
1	30910	806.5	2
1	30916	806.7	4
1	31114	811.6	2
1	31174	813.1	5
1	31370	818	2
1	31490	821	2
1	31574	823.1	2
1	31656	825.2	2
1	31674	825.6	4
1	31680	825.8	1
1	31740	827.3	3
1	31742	827.3	2
1	31814	829.1	1
1	31854	830.1	1
1	32088	836	2
1	32244	839.9	4
1	32284	840.9	1
1	32326	841.9	1
1	32386	843.4	5
1	32462	845.3	2
1	32468	845.5	5
1	32614	849.1	4
1	32624	849.4	2
1	32662	850.3	4
1	32680	850.8	2
1	32802	853.8	1
1	32832	854.6	1
1	32976	858.2	3
1	33032	859.6	5
1	33074	860.6	2
1	33168	863	3
1	33262	865.3	2
1	33574	873.1	4
1	33604	873.9	2
1	33694	876.1	4
1	33834	879.6	1
1	33998	883.7	3
1	34054	885.1	2
1	34254	890.1	1
1	34300	891.3	2
1	34396	893.7	3
1	34432	894.6	5
1	34558	897.7	1
1	34616	899.2	1
1	34816	904.2	3
1	34826	904.4	2
1	34898	906.2	3
1	34908	906.5	3
1	34992	908.6	5
1	35040	909.8	3
1	35072	910.6	3
1	35278	915.7	4
1	35292	916.1	2
1	35326	916.9	2
1	35452	920.1	3
1	35490	921	5
1	35544	922.4	1
1	35558	922.7	5
1	35600	923.8	2
1	35734	927.1	4
1	35748	927.5	2
1	36224	939.4	2
1	36268	940.5	1
1	36434	944.6	1
1	36516	946.7	1
1	36556	947.7	4
1	36564	947.9	1
1	36852	955.1	1
1	36896	956.2	2
1	36912	956.6	1
1	36960	957.8	2
1	37012	959.1	2
1	37086	960.9	3
1	37156	962.7	4
1	37562	972.8	1
1	37580	973.3	1
1	37612	974.1	3
1	37682	975.8	1
1	37688	976	5
1	38000	983.8	2
1	38172	988.1	2
1	38218	989.2	3
1	38280	990.8	1
1	38288	991	1
1	38334	992.1	2
1	38352	992.6	2
1	38392	993.6	3
1	38542	997.3	2
1	38572	998.1	1
1	38700	1001.3	3
1	38926	1006.9	1
1	39142	1012.3	1
1	39422	1019.3	3
1	39596	1023.7	2
1	39668	1025.5	2
1	39976	1033.2	3
1	39986	1033.4	2
1	40016	1034.2	1
1	40112	1036.6	4
1	40152	1037.6	4
1	40228	1039.5	1
1	40368	1043	2
1	40392	1043.6	3
1	40408	1044	2
1	40440	1044.8	2
1	40470	1045.5	4
1	40590	1048.5	4
1	40668	1050.5	3
1	40690	1051	4
1	40766	1052.9	1
1	40868	1055.5	2
1	41054	1060.1	4
1	41090	1061	5
1	41126	1061.9	5
1	41136	1062.2	2
1	41530	1072	1
1	41680	1075.8	3
1	41848	1080	1
1	41992	1083.6	2
1	42014	1084.1	2
1	42046	1084.9	3
1	42102	1086.3	3
1	42104	1086.4	4
1	42476	1095.7	5
1	42508	1096.5	1
1	42548	1097.5	4
1	42550	1097.5	2
1	42664	1100.4	3
1	42776	1103.2	2
1	43026	1109.4	3
1	43050	1110	3
1	43080	1110.8	5
1	43148	1112.5	2
1	43162	1112.8	2
1	43256	1115.2	1
1	43290	1116	1
1	43368	1118	3
1	43446	1119.9	3
1	43514	1121.6	5
1	43536	1122.2	1
1	43570	1123	2
1	43744	1127.4	1
1	43768	1128	1
1	43820	1129.3	1
1	43822	1129.3	2
1	43994	1133.6	2
1	44080	1135.8	1
1	44230	1139.5	5
1	44328	1142	5
1	44382	1143.3	1
1	44430	1144.5	2
1	44492	1146.1	4
1	44666	1150.4	1
1	44692	1151.1	3
1	44870	1155.5	1
1	44964	1157.9	1
1	45086	1160.9	2
1	45212	1164.1	2
1	45228	1164.5	1
1	45326	1166.9	4
1	45340	1167.3	1
1	45510	1171.5	2
1	45606	1173.9	4
1	45668	1175.5	3
1	45770	1178	5
1	45888	1181	2
1	45890	1181	1
1	46002	1183.8	2
1	46018	1184.2	2
1	46162	1187.8	1
1	46316	1191.7	4
1	46318	1191.7	3
1	46404	1193.9	2
1	46418	1194.2	3
1	46646	1199.9	1
1	46670	1200.5	1
1	46692	1201.1	3
1	46734	1202.1	1
1	46790	1203.5	3
1	46796	1203.7	2
1	46882	1205.8	1
1	46884	1205.9	1
1	46944	1207.4	3
1	46962	1207.8	3
1	47002	1208.8	4
1	47116	1211.7	1
1	47550	1222.5	5
1	47662	1225.3	4
1	47694	1226.1	3
1	47776	1228.2	1
1	47870	1230.5	2
1	47878	1230.7	1
1	47918	1231.7	1
1	48020	1234.3	1
1	48072	1235.6	1
1	48138	1237.2	1
1	48228	1239.5	4
1	48402	1243.8	3
1	48408	1244	1
1	48432	1244.6	1
1	48596	1248.7	1
1	48778	1253.2	1
1	48820	1254.3	1
1	48868	1255.5	1
1	48910	1256.5	1
1	49004	1258.9	2
1	49134	1262.1	2
1	49208	1264	2
1	49230	1264.5	2
1	49318	1266.7	1
1	49344	1267.4	2
1	49350	1267.5	2
1	49382	1268.3	2
1	49534	1272.1	2
1	49552	1272.6	1
1	49622	1274.3	1
1	49670	1275.5	2
1	49912	1281.6	2
1	50028	1284.5	2
1	50038	1284.7	5
1	50160	1287.8	3
1	50270	1290.5	1
1	50308	1291.5	2
1	50382	1293.3	2
1	50414	1294.1	1
1	50436	1294.7	1
1	50544	1297.4	1
1	50552	1297.6	1
1	50750	1302.5	5
1	50764	1302.9	2
1	50788	1303.5	2
1	50932	1307.1	1
1	50984	1308.4	1
1	51150	1312.5	4
1	51188	1313.5	3
1	51344	1317.4	1
1	51346	1317.4	1
1	51434	1319.6	2
1	51474	1320.6	3
1	51538	1322.2	1
1	51562	1322.8	1
1	51732	1327.1	1
1	51838	1329.7	5
1	51888	1331	4
1	51914	1331.6	4
1	51922	1331.8	1
1	52010	1334	4
1	52080	1335.8	1
1	52320	1341.8	3
1	52330	1342	3
1	52442	1344.8	1
1	52482	1345.8	3
1	52734	1352.1	2
1	52758	1352.7	1
1	52984	1358.4	2
1	53112	1361.6	2
1	53148	1362.5	5
1	53204	1363.9	1
1	53304	1366.4	3
1	53352	1367.6	1
1	53384	1368.4	1
1	53440	1369.8	1
1	53458	1370.2	5
1	53474	1370.6	2
1	53674	1375.6	2
1	53676	1375.7	2
1	53764	1377.9	1
1	53916	1381.7	2
1	53932	1382.1	2
1	54168	1388	1
1	54184	1388.4	1
1	54238	1389.7	1
1	54326	1391.9	1
1	54406	1393.9	2
1	54494	1396.1	2
1	54584	1398.4	3
1	54684	1400.9	1
1	54692	1401.1	1
1	54710	1401.5	2
1	54734	1402.1	1
1	54798	1403.7	1
1	54930	1407	3
1	55040	1409.8	2
1	55118	1411.7	3
1	55308	1416.5	2
1	55552	1422.6	1
1	55554	1422.6	2
1	55576	1423.2	2
1	55618	1424.2	1
1	55658	1425.2	2
1	55736	1427.2	3
1	55824	1429.4	1
1	55846	1429.9	1
1	55864	1430.4	2
1	55946	1432.4	2
1	56044	1434.9	2
1	56120	1436.8	2
1	56160	1437.8	1
1	56162	1437.8	2
1	56224	1439.4	2
1	56238	1439.7	2
1	56254	1440.1	1
1	56328	1442	1
1	56492	1446.1	1
1	56494	1446.1	1
1	56532	1447.1	4
1	56660	1450.3	2
1	56666	1450.4	3
1	56714	1451.6	1
1	56720	1451.8	2
1	56880	1455.8	2
1	57056	1460.2	4
1	57138	1462.2	5
1	57256	1465.2	1
1	57266	1465.4	5
1	57310	1466.5	1
1	57328	1467	2
1	57412	1469.1	2
1	57454	1470.1	2
1	57570	1473	3
1	57690	1476	2
1	57738	1477.2	3
1	57768	1478	1
1	57770	1478	3
1	57984	1483.4	1
1	58040	1484.8	2
1	58262	1490.3	1
1	58304	1491.4	2
1	58662	1500.3	1
1	58678	1500.7	2
1	58840	1504.8	2
1	58850	1505	1
1	58930	1507	2
1	58936	1507.2	2
1	58946	1507.4	1
1	58996	1508.7	2
1	59054	1510.1	2
1	59126	1511.9	5
1	59216	1514.2	2
1	59266	1515.4	2
1	59362	1517.8	2
1	59472	1520.6	2
1	59560	1522.8	2
1	59672	1525.6	2
1	59680	1525.8	1
1	59706	1526.4	2
1	59778	1528.2	1
1	59820	1529.3	2
1	59942	1532.3	3
1	59958	1532.7	2
1	59994	1533.6	5
1	60016	1534.2	1
1	60026	1534.4	1
1	60074	1535.6	1
1	60194	1538.6	3
1	60422	1544.3	1
1	60580	1548.3	2
1	60822	1554.3	2
1	60886	1555.9	2
1	61002	1558.8	2
1	61020	1559.3	4
1	61108	1561.5	3
1	61158	1562.7	3
1	61252	1565.1	5
1	61260	1565.3	1
1	61292	1566.1	3
1	61340	1567.3	3
1	61428	1569.5	1
1	61444	1569.9	1
1	61576	1573.2	3
1	61610	1574	2
1	61758	1577.7	1
1	61828	1579.5	2
1	61866	1580.4	1
1	61876	1580.7	2
1	61890	1581	3
1	62116	1586.7	2
1	62164	1587.9	1
1	62178	1588.2	1
1	62326	1591.9	2
1	62380	1593.3	1
1	62444	1594.9	1
1	62606	1598.9	3
1	62622	1599.3	2
1	62640	1599.8	5
1	62736	1602.2	2
1	62766	1602.9	3
1	62894	1606.1	1
1	62908	1606.5	1
1	63188	1613.5	1
1	63198	1613.7	2
1	63238	1614.7	1
1	63276	1615.7	2
1	63302	1616.3	1
1	63364	1617.9	5
1	63380	1618.3	1
1	63660	1625.3	2
1	63676	1625.7	2
1	63824	1629.4	3
1	63832	1629.6	1
1	63934	1632.1	5
1	63950	1632.5	1
1	63980	1633.3	2
1	64014	1634.1	3
1	64070	1635.5	5
1	64118	1636.7	4
1	64230	1639.5	2
1	64478	1645.7	4
1	64488	1646	3
1	64584	1648.4	1
1	64632	1649.6	3
1	64834	1654.6	1
1	64956	1657.7	1
1	64992	1658.6	5
1	65152	1662.6	1
1	65430	1669.5	4
1	65510	1671.5	4
1	65612	1674.1	2
1	65668	1675.5	1
1	65684	1675.9	2
1	65706	1676.4	5
1	65880	1680.8	1
1	65936	1682.2	3
1	66042	1684.8	3
1	66144	1687.4	1
1	66184	1688.4	4
1	66194	1688.6	1
1	66288	1691	2
1	66368	1693	4
1	66520	1696.8	5
1	66552	1697.6	3
1	66568	1698	2
1	66590	1698.5	3
1	66660	1700.3	1
1	66662	1700.3	3
1	66780	1703.3	3
1	66906	1706.4	5
1	66938	1707.2	3
1	67088	1711	4
1	67372	1718.1	4
1	67462	1720.3	1
1	67494	1721.1	3
1	67500	1721.3	2
1	67548	1722.5	1
1	67564	1722.9	1
1	67648	1725	1
1	67688	1726	1
1	67734	1727.1	4
1	67784	1728.4	4
1	67790	1728.5	2
1	67800	1728.8	2
1	67866	1730.4	5
1	67948	1732.5	1
1	68038	1734.7	1
1	68212	1739.1	1
1	68252	1740.1	1
1	68300	1741.3	3
1	68390	1743.5	1
1	68676	1750.7	5
1	68716	1751.7	3
1	68792	1753.6	3
1	68842	1754.8	1
1	68912	1756.6	2
1	69062	1760.3	3
1	69140	1762.3	1
1	69272	1765.6	3
1	69336	1767.2	4
1	69360	1767.8	1
1	69488	1771	2
1	69496	1771.2	1
1	69570	1773	1
1	69626	1774.4	2
1	69780	1778.3	5
1	70016	1784.2	2
1	70046	1784.9	1
1	70048	1785	1
1	70244	1789.9	3
1	70284	1790.9	1
1	70330	1792	1
1	70406	1793.9	3
1	70558	1797.7	2
1	70626	1799.4	1
1	70666	1800.4	4
1	70676	1800.7	1
1	70682	1800.8	1
1	70794	1803.6	2
1	70852	1805.1	2
1	71062	1810.3	1
1	71312	1816.6	1
2	102	4.3	2
2	697	30.8	3
2	786	34.7	3
2	923	40.6	4
2	1078	47.2	5
2	1404	62.2	1
2	1466	65	4
2	2046	87.2	5
2	2310	93.4	7
2	2547	98.9	2
2	2668	101.8	5
2	2678	102.1	7
2	2744	103.7	5
2	2754	104	3
2	2781	104.6	3
2	3071	111.4	9
2	3151	113.4	3
2	3692	126.3	5
2	3744	127.6	4
2	3782	128.5	7
2	3852	130.3	6
2	3990	133.7	8
2	4072	135.8	9
2	4171	138.2	9
2	4231	139.7	2
2	4375	143.3	7
2	4549	147.6	9
2	4563	148	1
2	4589	148.6	4
2	4672	150.6	4
2	4733	152.2	8
2	4887	156	2
2	4943	157.4	4
2	5074	160.7	9
2	5342	167.4	2
2	5350	167.6	1
2	5360	167.9	7
2	5472	170.7	3
2	5572	173.2	3
2	5598	173.8	5
2	5648	175.1	5
2	5664	175.5	2
2	5666	175.5	9
2	5720	176.9	4
2	5768	178.1	9
2	5832	179.7	4
2	5888	181.1	7
2	5944	182.5	1
2	6002	183.9	1
2	6152	187.7	3
2	6242	189.9	1
2	6274	190.7	4
2	6276	190.8	7
2	6284	191	1
2	6306	191.5	4
2	6526	197	5
2	6553	197.7	2
2	6648	200	2
2	6736	202.2	1
2	6750	202.5	2
2	6894	206.1	7
2	6950	207.5	1
2	6988	208.5	9
2	7280	215.8	5
2	7360	217.8	4
2	7592	223.6	5
2	7844	229.9	7
2	7876	230.7	4
2	7938	232.2	7
2	8028	234.5	4
2	8060	235.3	1
2	8224	239.4	9
2	8232	239.6	1
2	8250	240	5
2	8290	241	8
2	8298	241.2	1
2	8338	242.2	5
2	8392	243.6	3
2	8414	244.1	8
2	8478	245.7	5
2	8550	247.5	7
2	8584	248.4	3
2	8716	251.7	4
2	8774	253.1	6
2	8796	253.7	6
2	8990	258.5	6
2	9078	260.7	8
2	9218	264.2	3
2	9310	266.5	1
2	9528	272	2
2	9734	277.1	3
2	9794	278.6	3
2	9932	282.1	4
2	10228	289.5	3
2	10254	290.1	1
2	10302	291.3	5
2	10430	294.5	4
2	10510	296.5	3
2	10524	296.9	6
2	10564	297.9	3
2	10590	298.5	6
2	10600	298.8	5
2	10656	300.2	9
2	10686	300.9	4
2	10760	302.8	3
2	10782	303.3	7
2	10868	305.5	9
2	10978	308.2	4
2	11092	311.1	2
2	11260	315.3	5
2	11558	322.7	3
2	11934	332.1	2
2	11940	332.3	5
2	11992	333.6	2
2	12024	334.4	4
2	12050	335	5
2	12058	335.2	1
2	12088	336	6
2	12118	336.7	5
2	12168	338	1
2	12366	342.9	5
2	12390	343.5	3
2	12466	345.4	5
2	12488	346	4
2	12732	352.1	4
2	12918	356.7	6
2	12928	357	9
2	13022	359.3	4
2	13192	363.6	9
2	13336	367.2	5
2	13440	369.8	7
2	13538	372.2	3
2	13616	374.2	6
2	13698	376.2	4
2	13744	377.4	5
2	13766	377.9	3
2	13844	379.9	8
2	13892	381.1	5
2	13924	381.9	4
2	13964	382.9	2
2	13966	382.9	3
2	14250	390	8
2	14410	394	9
2	14494	396.1	5
2	14518	396.7	1
2	14520	396.8	5
2	14596	398.7	3
2	14644	399.9	3
2	14724	401.9	2
2	14756	402.7	4
2	14834	404.6	9
2	14848	405	9
2	14902	406.3	5
2	14948	407.5	5
2	14958	407.7	3
2	15006	408.9	8
2	15072	410.6	4
2	15152	412.6	9
2	15184	413.4	3
2	15280	415.8	4
2	15470	420.5	1
2	15488	421	5
2	15528	422	8
2	15584	423.4	4
2	15622	424.3	5
2	15656	425.2	1
2	15808	429	7
2	15896	431.2	5
2	15920	431.8	3
2	15966	432.9	9
2	15968	433	4
2	16002	433.8	5
2	16262	440.3	4
2	16268	440.5	2
2	16414	444.1	8
2	16604	448.9	9
2	16614	449.1	9
2	16708	451.5	8
2	16758	452.7	4
2	16782	453.3	3
2	16822	454.3	8
2	16862	455.3	5
2	16916	456.7	6
2	16934	457.1	4
2	16956	457.7	7
2	16998	458.7	2
2	17054	460.1	6
2	17080	460.8	4
2	17130	462	4
2	17308	466.5	5
2	17370	468	7
2	17426	469.4	7
2	17464	470.4	5
2	17580	473.3	6
2	17606	473.9	7
2	17636	474.7	2
2	17746	477.4	4
2	17916	481.7	4
2	18012	484.1	3
2	18046	484.9	3
2	18084	485.9	4
2	18098	486.2	5
2	18284	490.9	5
2	18380	493.3	3
2	18450	495	8
2	18474	495.6	3
2	18546	497.4	6
2	18576	498.2	6
2	18702	501.3	5
2	18712	501.6	6
2	18758	502.7	2
2	18782	503.3	3
2	18916	506.7	1
2	18956	507.7	4
2	18996	508.7	1
2	19188	513.5	5
2	19250	515	3
2	19322	516.8	3
2	19442	519.8	8
2	19484	520.9	4
2	19600	523.8	7
2	19602	523.8	8
2	19668	525.5	5
2	19804	528.9	1
2	19910	531.5	5
2	19938	532.2	1
2	19994	533.6	4
2	20042	534.8	3
2	20108	536.5	8
2	20150	537.5	2
2	20300	541.3	4
2	20358	542.7	6
2	20434	544.6	1
2	20458	545.2	3
2	20468	545.5	3
2	20620	549.3	5
2	20714	551.6	5
2	20738	552.2	3
2	20922	556.8	3
2	20924	556.9	4
2	20962	557.8	1
2	20996	558.7	8
2	21002	558.8	5
2	21086	560.9	2
2	21118	561.7	4
2	21198	563.7	3
2	21292	566.1	1
2	21354	567.6	3
2	21380	568.3	8
2	21546	572.4	7
2	21586	573.4	4
2	21608	574	3
2	21648	575	7
2	21688	576	8
2	21760	577.8	8
2	22100	586.3	7
2	22194	588.6	3
2	22270	590.5	3
2	22446	594.9	4
2	22658	600.2	4
2	22712	601.6	8
2	22744	602.4	4
2	22800	603.8	2
2	22858	605.2	9
2	23416	619.2	1
2	23628	624.5	2
2	23642	624.8	2
2	23682	625.8	8
2	23844	629.9	5
2	23884	630.9	6
2	23894	631.1	5
2	24040	634.8	7
2	24086	635.9	2
2	24128	637	4
2	24184	638.4	8
2	24280	640.8	5
2	24350	642.5	7
2	24438	644.7	1
2	24494	646.1	1
2	24606	648.9	5
2	24956	657.7	1
2	25040	659.8	7
2	25066	660.4	4
2	25128	662	5
2	25202	663.8	5
2	25290	666	6
2	25328	667	5
2	25386	668.4	9
2	25548	672.5	3
2	25554	672.6	6
2	25710	676.5	1
2	25716	676.7	7
2	25860	680.3	4
2	25862	680.3	5
2	25978	683.2	5
2	26132	687.1	4
2	26258	690.2	5
2	26312	691.6	6
2	26402	693.8	4
2	26548	697.5	3
2	26610	699	8
2	26612	699.1	3
2	26678	700.7	8
2	26862	705.3	2
2	26976	708.2	5
2	26998	708.7	7
2	27032	709.6	4
2	27088	711	4
2	27288	716	5
2	27334	717.1	9
2	27374	718.1	1
2	27468	720.5	7
2	27484	720.9	1
2	27630	724.5	8
2	27806	728.9	4
2	27896	731.2	1
2	27906	731.4	7
2	27984	733.4	5
2	28040	734.8	4
2	28082	735.8	9
2	28158	737.7	5
2	28282	740.8	2
2	28336	742.2	8
2	28394	743.6	3
2	28524	746.9	2
2	28700	751.3	5
2	28888	756	5
2	29094	761.1	5
2	29280	765.8	6
2	29380	768.3	5
2	29446	769.9	4
2	29612	774.1	7
2	29646	774.9	3
2	29870	780.5	7
2	29876	780.7	7
2	29998	783.7	2
2	30138	787.2	3
2	30152	787.6	5
2	30250	790	5
2	30280	790.8	3
2	30374	793.1	4
2	30546	797.4	2
2	30648	800	1
2	30756	802.7	3
2	30788	803.5	4
2	30850	805	3
2	30948	807.5	8
2	31080	810.8	4
2	31184	813.4	6
2	31248	815	7
2	31536	822.2	6
2	31566	822.9	7
2	31716	826.7	5
2	31766	827.9	4
2	31864	830.4	6
2	32162	837.8	5
2	32318	841.7	6
2	32528	847	4
2	32616	849.2	9
2	32672	850.6	4
2	32694	851.1	1
2	32736	852.2	9
2	32766	852.9	2
2	32858	855.2	6
2	32904	856.4	5
2	32970	858	9
2	32992	858.6	2
2	33106	861.4	8
2	33128	862	4
2	33130	862	3
2	33240	864.8	2
2	33296	866.2	2
2	33352	867.6	2
2	33400	868.8	9
2	33432	869.6	2
2	33462	870.3	6
2	33502	871.3	4
2	33596	873.7	4
2	33688	876	9
2	33944	882.4	7
2	34238	889.7	7
2	34292	891.1	7
2	34340	892.3	4
2	34350	892.5	7
2	34382	893.3	4
2	34458	895.2	2
2	34542	897.3	4
2	34680	900.8	3
2	34736	902.2	4
2	34858	905.2	1
2	35034	909.6	2
2	35324	916.9	8
2	35358	917.7	1
2	35426	919.4	6
2	35500	921.3	4
2	35522	921.8	6
2	35576	923.2	8
2	35666	925.4	5
2	35928	932	4
2	35968	933	5
2	36176	938.2	7
2	36222	939.3	1
2	36302	941.3	7
2	36514	946.6	6
2	36578	948.2	3
2	36620	949.3	9
2	36676	950.7	6
2	36738	952.2	7
2	36888	956	4
2	37014	959.1	9
2	37158	962.7	1
2	37190	963.5	4
2	37254	965.1	7
2	37302	966.3	7
2	37450	970	4
2	37536	972.2	1
2	37746	977.4	3
2	37788	978.5	1
2	37820	979.3	4
2	37844	979.9	3
2	37846	979.9	9
2	37926	981.9	4
2	37940	982.3	3
2	38088	986	3
2	38098	986.2	5
2	38164	987.9	4
2	38204	988.9	3
2	38270	990.5	1
2	38312	991.6	3
2	38318	991.7	9
2	38382	993.3	4
2	38502	996.3	3
2	38658	1000.2	6
2	38676	1000.7	5
2	38706	1001.4	5
2	38734	1002.1	2
2	38834	1004.6	4
2	38856	1005.2	9
2	38872	1005.6	2
2	39076	1010.7	4
2	39116	1011.7	5
2	39174	1013.1	5
2	39226	1014.4	5
2	39266	1015.4	6
2	39284	1015.9	7
2	39344	1017.4	5
2	39398	1018.7	3
2	39492	1021.1	4
2	39702	1026.3	7
2	39790	1028.5	4
2	39818	1029.2	1
2	39840	1029.8	3
2	39920	1031.8	9
2	40018	1034.2	5
2	40048	1035	3
2	40080	1035.8	4
2	40160	1037.8	1
2	40182	1038.3	7
2	40284	1040.9	3
2	40302	1041.3	2
2	40488	1046	3
2	40628	1049.5	4
2	40742	1052.3	4
2	40860	1055.3	7
2	40996	1058.7	5
2	40998	1058.7	9
2	41412	1069.1	9
2	41482	1070.8	7
2	41592	1073.6	5
2	41618	1074.2	5
2	41916	1081.7	2
2	41984	1083.4	4
2	41990	1083.5	9
2	42000	1083.8	1
2	42188	1088.5	3
2	42330	1092	5
2	42380	1093.3	3
2	42582	1098.3	4
2	42696	1101.2	8
2	42754	1102.6	5
2	42768	1103	9
2	42808	1104	2
2	42964	1107.9	6
2	43044	1109.9	3
2	43074	1110.6	3
2	43230	1114.5	4
2	43370	1118	4
2	43410	1119	7
2	43478	1120.7	8
2	43520	1121.8	7
2	43546	1122.4	2
2	43552	1122.6	2
2	43790	1128.5	3
2	43854	1130.1	8
2	44016	1134.2	4
2	44070	1135.5	5
2	44110	1136.5	7
2	44132	1137.1	5
2	44180	1138.3	3
2	44236	1139.7	3
2	44350	1142.5	9
2	44524	1146.9	8
2	44540	1147.3	2
2	44588	1148.5	2
2	44884	1155.9	6
2	45076	1160.7	7
2	45078	1160.7	6
2	45128	1162	5
2	45138	1162.2	1
2	45202	1163.8	3
2	45308	1166.5	1
2	45358	1167.7	8
2	45432	1169.6	3
2	45644	1174.9	4
2	45930	1182	9
2	46146	1187.4	7
2	46238	1189.7	5
2	46294	1191.1	3
2	46350	1192.5	8
2	46396	1193.7	3
2	46442	1194.8	1
2	46508	1196.5	4
2	46564	1197.9	4
2	46586	1198.4	3
2	46724	1201.9	8
2	47164	1212.9	3
2	47212	1214.1	6
2	47318	1216.7	4
2	47348	1217.5	5
2	47582	1223.3	6
2	47616	1224.2	6
2	47664	1225.4	3
2	47712	1226.6	9
2	47782	1228.3	6
2	47814	1229.1	3
2	47844	1229.9	2
2	47862	1230.3	3
2	47950	1232.5	8
2	48114	1236.6	2
2	48132	1237.1	5
2	48170	1238	3
2	48188	1238.5	2
2	48244	1239.9	1
2	48524	1246.9	3
2	48572	1248.1	3
2	48636	1249.7	6
2	48676	1250.7	7
2	48714	1251.6	3
2	48788	1253.5	5
2	48942	1257.3	8
2	49006	1258.9	9
2	49110	1261.5	9
2	49200	1263.8	6
2	49342	1267.3	3
2	49400	1268.8	5
2	49518	1271.7	5
2	49536	1272.2	3
2	49566	1272.9	8
2	49704	1276.4	3
2	49730	1277	2
2	49770	1278	2
2	49784	1278.4	5
2	49858	1280.2	9
2	49962	1282.8	3
2	50020	1284.3	2
2	50200	1288.8	9
2	50262	1290.3	6
2	50294	1291.1	2
2	50300	1291.3	6
2	50502	1296.3	4
2	50534	1297.1	3
2	50634	1299.6	3
2	50824	1304.4	5
2	50856	1305.2	4
2	51014	1309.1	7
2	51090	1311	3
2	51186	1313.4	5
2	51298	1316.2	7
2	51338	1317.2	6
2	51604	1323.9	7
2	51636	1324.7	3
2	51722	1326.8	9
2	51836	1329.7	4
2	51954	1332.6	8
2	52244	1339.9	2
2	52500	1346.3	5
2	52524	1346.9	3
2	52574	1348.1	2
2	52614	1349.1	4
2	52676	1350.7	7
2	52686	1350.9	1
2	52726	1351.9	7
2	52740	1352.3	1
2	52832	1354.6	5
2	52882	1355.8	3
2	52952	1357.6	3
2	52990	1358.5	9
2	53042	1359.8	3
2	53048	1360	7
2	53098	1361.2	1
2	53104	1361.4	5
2	53180	1363.3	4
2	53286	1365.9	5
2	53472	1370.6	8
2	53540	1372.3	3
2	53550	1372.5	3
2	53750	1377.5	3
2	53804	1378.9	9
2	53862	1380.3	3
2	54096	1386.2	4
2	54270	1390.5	8
2	54492	1396.1	7
2	54646	1399.9	4
2	54702	1401.3	5
2	54764	1402.9	9
2	54766	1402.9	5
2	54906	1406.4	9
2	54966	1407.9	2
2	55030	1409.5	4
2	55032	1409.6	5
2	55046	1409.9	2
2	55148	1412.5	6
2	55214	1414.1	4
2	55314	1416.6	3
2	55394	1418.6	4
2	55480	1420.8	5
2	55546	1422.4	4
2	55608	1424	8
2	55694	1426.1	2
2	55734	1427.1	6
2	55814	1429.1	9
2	55878	1430.7	3
2	56036	1434.7	3
2	56230	1439.5	7
2	56358	1442.7	5
2	56454	1445.1	4
2	56542	1447.3	3
2	56612	1449.1	3
2	56786	1453.4	3
2	56942	1457.3	5
2	57022	1459.3	1
2	57144	1462.4	5
2	57170	1463	5
2	57342	1467.3	5
2	57372	1468.1	3
2	57382	1468.3	6
2	57446	1469.9	9
2	57650	1475	4
2	57676	1475.7	1
2	57682	1475.8	4
2	57846	1479.9	7
2	57880	1480.8	5
2	57968	1483	3
2	58032	1484.6	2
2	58104	1486.4	9
2	58152	1487.6	9
2	58210	1489	3
2	58294	1491.1	8
2	58368	1493	4
2	58450	1495	4
2	58554	1497.6	3
2	58630	1499.5	2
2	58716	1501.7	6
2	58752	1502.6	3
2	58784	1503.4	4
2	58818	1504.2	2
2	58922	1506.8	7
2	58978	1508.2	8
2	59086	1510.9	8
2	59104	1511.4	5
2	59158	1512.7	8
2	59258	1515.2	4
2	59292	1516.1	9
2	59422	1519.3	5
2	59448	1520	5
2	59624	1524.4	6
2	59698	1526.2	6
2	59732	1527.1	3
2	59788	1528.5	3
2	59834	1529.6	2
2	59932	1532.1	2
2	60066	1535.4	4
2	60132	1537.1	2
2	60184	1538.4	5
2	60304	1541.4	1
2	60350	1542.5	1
2	60376	1543.2	9
2	60400	1543.8	3
2	60406	1543.9	7
2	60454	1545.1	8
2	60472	1545.6	4
2	60508	1546.5	5
2	60540	1547.3	4
2	60558	1547.7	5
2	60572	1548.1	1
2	60688	1551	3
2	60702	1551.3	5
2	60774	1553.1	9
2	60814	1554.1	5
2	60854	1555.1	8
2	60994	1558.6	4
2	61046	1559.9	5
2	61216	1564.2	2
2	61318	1566.7	1
2	61382	1568.3	9
2	61494	1571.1	5
2	61620	1574.3	3
2	61710	1576.5	5
2	61860	1580.3	8
2	61916	1581.7	4
2	62006	1583.9	9
2	62062	1585.3	5
2	62318	1591.7	5
2	62398	1593.7	7
2	62484	1595.9	3
2	62654	1600.1	8
2	62742	1602.3	4
2	62862	1605.3	6
2	62892	1606.1	3
2	62990	1608.5	5
2	63030	1609.5	4
2	63086	1610.9	7
2	63118	1611.7	4
2	63268	1615.5	6
2	63270	1615.5	4
2	63506	1621.4	9
2	63516	1621.7	1
2	63614	1624.1	9
2	63858	1630.2	1
2	63908	1631.5	7
2	63948	1632.5	5
2	64188	1638.5	7
2	64228	1639.5	6
2	64262	1640.3	8
2	64312	1641.6	7
2	64336	1642.2	3
2	64342	1642.3	9
2	64366	1642.9	3
2	64398	1643.7	1
2	64590	1648.5	6
2	64646	1649.9	9
2	64726	1651.9	7
2	64764	1652.9	9
2	65048	1660	5
2	65056	1660.2	1
2	65286	1665.9	2
2	65336	1667.2	2
2	65412	1669.1	6
2	65542	1672.3	8
2	65582	1673.3	1
2	65644	1674.9	7
2	65886	1680.9	4
2	65942	1682.3	4
2	65974	1683.1	4
2	66006	1683.9	3
2	66074	1685.6	8
2	66108	1686.5	7
2	66146	1687.4	6
2	66280	1690.8	4
2	66612	1699.1	5
2	66692	1701.1	8
2	66702	1701.3	9
2	66860	1705.3	7
2	66924	1706.9	3
2	66970	1708	8
2	67026	1709.4	6
2	67120	1711.8	8
2	67138	1712.2	4
2	67152	1712.6	4
2	67194	1713.6	9
2	67218	1714.2	3
2	67260	1715.3	5
2	67370	1718	3
2	67404	1718.9	8
2	67550	1722.5	2
2	67606	1723.9	4
2	67624	1724.4	5
2	67702	1726.3	7
2	67720	1726.8	3
2	67822	1729.3	7
2	67896	1731.2	3
2	67962	1732.8	6
2	68000	1733.8	1
2	68098	1736.2	5
2	68124	1736.9	4
2	68222	1739.3	5
2	68348	1742.5	7
2	68374	1743.1	1
2	68412	1744.1	4
2	68422	1744.3	3
2	68464	1745.4	1
2	68486	1745.9	9
2	68504	1746.4	2
2	68650	1750	4
2	68774	1753.1	4
2	68810	1754	5
2	68834	1754.6	3
2	68840	1754.8	4
2	68968	1758	5
2	69060	1760.3	5
2	69290	1766	9
2	69304	1766.4	7
2	69330	1767	6
2	69432	1769.6	9
2	69514	1771.6	5
2	69562	1772.8	3
2	69610	1774	4
2	69634	1774.6	1
2	69682	1775.8	9
2	69866	1780.4	9
2	69938	1782.2	4
2	69960	1782.8	6
2	70122	1786.8	2
2	70298	1791.2	7
2	70492	1796.1	3
2	70550	1797.5	5
2	70754	1802.6	7
2	70756	1802.7	6
2	70820	1804.3	7
2	70850	1805	6
2	70890	1806	7
2	71140	1812.3	9
2	71166	1812.9	4
2	71418	1819.2	7
3	120	5.1	4
3	409	18.1	2
3	576	25.3	1
3	857	37.8	2
3	1057	46.3	6
3	1153	50.9	3
3	1499	66.6	3
3	1581	70.4	3
3	1698	75.6	7
3	1909	83.9	4
3	2026	86.7	2
3	2062	87.6	4
3	2144	89.5	4
3	2186	90.5	6
3	2316	93.5	6
3	2541	98.8	2
3	2684	102.2	4
3	2694	102.5	4
3	2724	103.2	5
3	2834	105.7	2
3	2949	108.6	3
3	3111	112.4	4
3	3130	112.9	1
3	3184	114.2	2
3	3285	116.3	3
3	3475	121	4
3	3489	121.3	3
3	3511	121.9	4
3	3573	123.4	1
3	3672	125.8	5
3	3796	128.9	5
3	3854	130.3	4
3	3868	130.7	4
3	3938	132.4	1
3	3948	132.7	4
3	4062	135.5	2
3	4112	136.8	6
3	4257	140.3	4
3	4325	142	3
3	4327	142.1	7
3	4459	145.4	4
3	4616	149.3	5
3	4735	152.2	6
3	4963	157.9	2
3	4965	158	3
3	5028	159.6	3
3	5148	162.6	7
3	5198	163.8	2
3	5200	163.9	1
3	5240	164.9	5
3	5258	165.3	6
3	5292	166.2	2
3	5376	168.3	4
3	5414	169.2	4
3	5814	179.2	6
3	5882	180.9	2
3	5986	183.5	3
3	6032	184.7	4
3	6104	186.5	5
3	6324	192	3
3	6384	193.5	3
3	6440	194.9	4
3	6506	196.5	4
3	6608	199	1
3	6610	199	3
3	6852	205.1	3
3	6934	207.1	5
3	7036	209.7	3
3	7092	211.1	7
3	7132	212.1	5
3	7232	214.6	1
3	7320	216.8	3
3	7358	217.7	4
3	7400	218.8	5
3	7502	221.3	5
3	7504	221.4	4
3	7540	222.3	1
3	7572	223.1	1
3	7632	224.6	6
3	7686	225.9	6
3	7722	226.8	4
3	7890	231	4
3	7916	231.7	6
3	8044	234.9	4
3	8058	235.2	4
3	8124	236.9	7
3	8130	237	3
3	8230	239.5	3
3	8448	245	7
3	8566	247.9	4
3	8846	254.9	3
3	8852	255.1	5
3	8964	257.9	3
3	8996	258.7	4
3	9250	265	4
3	9284	265.9	5
3	9470	270.5	2
3	9512	271.6	4
3	9646	274.9	3
3	9754	277.6	1
3	9788	278.5	3
3	9836	279.7	5
3	10010	284	2
3	10060	285.3	5
3	10074	285.6	2
3	10144	287.4	2
3	10366	292.9	4
3	10464	295.4	4
3	10580	298.3	4
3	10672	300.6	2
3	10740	302.3	4
3	11010	309	2
3	11032	309.6	5
3	11050	310	5
3	11192	313.6	2
3	11240	314.8	5
3	11250	315	5
3	11328	317	2
3	11354	317.6	4
3	11492	321.1	3
3	11560	322.8	2
3	11622	324.3	6
3	11636	324.7	5
3	11710	326.5	4
3	11780	328.3	2
3	11830	329.5	6
3	11880	330.8	1
3	11918	331.7	5
3	11920	331.8	3
3	12098	336.2	6
3	12150	337.5	4
3	12152	337.6	6
3	12190	338.5	5
3	12248	340	3
3	12346	342.4	5
3	12448	345	3
3	12526	346.9	3
3	12568	348	2
3	12586	348.4	1
3	12628	349.5	6
3	12944	357.4	4
3	12958	357.7	6
3	13116	361.7	4
3	13214	364.1	5
3	13232	364.6	5
3	13358	367.7	3
3	13392	368.6	6
3	13714	376.6	3
3	13724	376.9	4
3	13862	380.3	6
3	13926	381.9	6
3	13998	383.7	4
3	14006	383.9	1
3	14094	386.1	2
3	14164	387.9	5
3	14268	390.5	7
3	14306	391.4	4
3	14340	392.3	1
3	14456	395.2	7
3	14474	395.6	2
3	14534	397.1	4
3	14658	400.2	3
3	14714	401.6	6
3	14882	405.8	5
3	14908	406.5	7
3	15022	409.3	4
3	15024	409.4	6
3	15058	410.2	4
3	15114	411.6	5
3	15290	416	5
3	15296	416.2	4
3	15362	417.8	2
3	15368	418	4
3	15402	418.8	5
3	15468	420.5	5
3	15602	423.8	4
3	15858	430.2	6
3	15874	430.6	2
3	15982	433.3	4
3	16100	436.3	4
3	16170	438	2
3	16252	440.1	4
3	16346	442.4	3
3	16348	442.5	5
3	16654	450.1	6
3	16792	453.6	2
3	16860	455.3	5
3	17070	460.5	4
3	17144	462.4	1
3	17254	465.1	5
3	17288	466	7
3	17376	468.2	4
3	17444	469.9	3
3	17558	472.7	1
3	17650	475	1
3	17828	479.5	2
3	17954	482.6	3
3	17982	483.3	3
3	18078	485.7	4
3	18138	487.2	5
3	18186	488.4	2
3	18202	488.8	2
3	18210	489	1
3	18294	491.1	3
3	18300	491.3	4
3	18370	493	3
3	18444	494.9	3
3	18602	498.8	5
3	18682	500.8	4
3	19100	511.3	5
3	19152	512.6	4
3	19168	513	2
3	19174	513.1	3
3	19248	515	3
3	19364	517.9	4
3	19552	522.6	1
3	19634	524.6	5
3	19764	527.9	2
3	19794	528.6	6
3	19842	529.8	7
3	19890	531	3
3	19912	531.6	7
3	20058	535.2	4
3	20128	537	2
3	20332	542.1	4
3	20378	543.2	2
3	20388	543.5	6
3	20562	547.8	5
3	20564	547.9	4
3	20694	551.1	6
3	20736	552.2	2
3	20786	553.4	5
3	20982	558.3	1
3	21012	559.1	2
3	21112	561.6	7
3	21172	563.1	5
3	21178	563.2	5
3	21234	564.6	3
3	21276	565.7	3
3	21436	569.7	2
3	21442	569.8	4
3	21460	570.3	3
3	21490	571	5
3	21642	574.8	6
3	21666	575.4	3
3	21694	576.1	2
3	21802	578.8	2
3	21852	580.1	6
3	21950	582.5	6
3	22048	585	4
3	22188	588.5	3
3	22250	590	6
3	22268	590.5	4
3	22330	592	5
3	22406	593.9	2
3	22526	596.9	3
3	22644	599.9	4
3	22698	601.2	2
3	22824	604.4	4
3	22876	605.7	5
3	22924	606.9	3
3	22948	607.5	3
3	22954	607.6	2
3	23086	610.9	7
3	23136	612.2	4
3	23144	612.4	1
3	23166	612.9	2
3	23398	618.7	7
3	23460	620.3	4
3	23502	621.3	5
3	23518	621.7	2
3	23580	623.3	2
3	23648	625	2
3	23708	626.5	6
3	23722	626.8	5
3	23770	628	3
3	23824	629.4	5
3	23904	631.4	1
3	23974	633.1	2
3	24022	634.3	7
3	24056	635.2	4
3	24158	637.7	4
3	24586	648.4	6
3	24710	651.5	5
3	24768	653	3
3	24894	656.1	5
3	25182	663.3	1
3	25306	666.4	4
3	25452	670.1	1
3	25492	671.1	4
3	25668	675.5	7
3	25674	675.6	3
3	25820	679.3	5
3	26018	684.2	7
3	26082	685.8	1
3	26104	686.4	6
3	26238	689.7	6
3	26252	690.1	6
3	26310	691.5	2
3	26420	694.3	3
3	26442	694.8	4
3	26490	696	7
3	26516	696.7	5
3	26580	698.3	2
3	26626	699.4	2
3	26754	702.6	3
3	26844	704.9	3
3	26894	706.1	4
3	26912	706.6	5
3	26930	707	4
3	27014	709.1	4
3	27128	712	7
3	27174	713.1	4
3	27214	714.1	5
3	27268	715.5	7
3	27348	717.5	3
3	27554	722.6	2
3	27678	725.7	3
3	27696	726.2	3
3	27734	727.1	7
3	27760	727.8	2
3	27784	728.4	3
3	27958	732.7	3
3	27964	732.9	5
3	28000	733.8	4
3	28026	734.4	2
3	28096	736.2	4
3	28138	737.2	2
3	28322	741.8	5
3	28464	745.4	1
3	28518	746.7	5
3	28612	749.1	5
3	28842	754.8	4
3	28848	755	1
3	28910	756.5	2
3	28968	758	5
3	29042	759.8	1
3	29134	762.1	5
3	29160	762.8	5
3	29322	766.8	4
3	29360	767.8	4
3	29514	771.6	2
3	29538	772.2	3
3	29672	775.6	3
3	29674	775.6	2
3	29710	776.5	4
3	29712	776.6	5
3	29734	777.1	2
3	29828	779.5	7
3	29982	783.3	4
3	30016	784.2	3
3	30062	785.3	3
3	30112	786.6	6
3	30154	787.6	3
3	30388	793.5	4
3	30418	794.2	1
3	30520	796.8	6
3	30616	799.2	6
3	30618	799.2	6
3	30742	802.3	5
3	30802	803.8	6
3	30988	808.5	5
3	31030	809.5	6
3	31154	812.6	4
3	31190	813.5	4
3	31360	817.8	6
3	31410	819	3
3	31480	820.8	6
3	31556	822.7	1
3	31590	823.5	4
3	31596	823.7	2
3	31696	826.2	4
3	31756	827.7	4
3	31878	830.7	5
3	31928	832	5
3	32042	834.8	1
3	32122	836.8	1
3	32366	842.9	5
3	32372	843.1	5
3	32402	843.8	4
3	32448	845	3
3	32552	847.6	3
3	32678	850.7	3
3	32848	855	4
3	32914	856.6	6
3	33012	859.1	1
3	33042	859.8	4
3	33146	862.4	4
3	33206	863.9	6
3	33246	864.9	3
3	33298	866.2	2
3	33346	867.4	5
3	33402	868.8	4
3	33504	871.4	3
3	33564	872.9	6
3	33598	873.7	4
3	33726	876.9	6
3	33752	877.6	7
3	33896	881.2	7
3	33960	882.8	4
3	34014	884.1	4
3	34076	885.7	1
3	34182	888.3	7
3	34208	889	1
3	34278	890.7	3
3	34412	894.1	4
3	34442	894.8	4
3	34528	897	5
3	34632	899.6	4
3	34768	903	5
3	34802	903.8	2
3	34842	904.8	4
3	34924	906.9	4
3	34926	906.9	1
3	34972	908.1	7
3	34974	908.1	3
3	35074	910.6	6
3	35088	911	4
3	35114	911.6	2
3	35122	911.8	1
3	35152	912.6	5
3	35204	913.9	7
3	35258	915.2	2
3	35378	918.2	1
3	35470	920.5	2
3	35538	922.2	4
3	35582	923.3	4
3	36000	933.8	4
3	36088	936	6
3	36142	937.3	7
3	36352	942.6	3
3	36402	943.8	5
3	36618	949.2	5
3	36740	952.3	6
3	36776	953.2	3
3	36858	955.2	7
3	36868	955.5	3
3	37060	960.3	7
3	37120	961.8	4
3	37136	962.2	2
3	37224	964.4	7
3	37356	967.7	4
3	37366	967.9	4
3	37384	968.4	1
3	37490	971	5
3	37506	971.4	2
3	37556	972.7	2
3	37578	973.2	4
3	37660	975.3	5
3	37668	975.5	1
3	37698	976.2	2
3	37886	980.9	6
3	37916	981.7	7
3	38024	984.4	4
3	38108	986.5	2
3	38368	993	4
3	38448	995	5
3	38518	996.7	4
3	38612	999.1	4
3	38728	1002	1
3	38762	1002.8	2
3	38942	1007.3	4
3	38980	1008.3	3
3	38982	1008.3	5
3	39086	1010.9	2
3	39172	1013.1	6
3	39206	1013.9	2
3	39236	1014.7	1
3	39324	1016.9	5
3	39374	1018.1	5
3	39558	1022.7	1
3	39582	1023.3	3
3	39692	1026.1	2
3	39962	1032.8	2
3	39992	1033.6	4
3	40074	1035.6	2
3	40082	1035.8	1
3	40390	1043.5	6
3	40526	1046.9	4
3	40596	1048.7	5
3	40618	1049.2	1
3	40626	1049.4	1
3	40796	1053.7	7
3	40886	1055.9	6
3	40906	1056.4	2
3	40976	1058.2	1
3	41070	1060.5	4
3	41080	1060.8	3
3	41106	1061.4	4
3	41152	1062.6	3
3	41244	1064.9	6
3	41268	1065.5	2
3	41292	1066.1	3
3	41306	1066.4	6
3	41356	1067.7	7
3	41366	1067.9	2
3	41436	1069.7	2
3	41498	1071.2	4
3	41598	1073.7	5
3	41632	1074.6	5
3	41660	1075.3	3
3	41686	1075.9	2
3	41758	1077.7	3
3	41792	1078.6	4
3	41884	1080.9	3
3	42016	1084.2	4
3	42084	1085.9	3
3	42166	1087.9	1
3	42304	1091.4	1
3	42432	1094.6	1
3	42438	1094.7	4
3	42456	1095.2	3
3	42502	1096.3	3
3	42874	1105.6	5
3	42930	1107	5
3	43020	1109.3	6
3	43060	1110.3	4
3	43090	1111	2
3	43108	1111.5	2
3	43182	1113.3	1
3	43338	1117.2	3
3	43426	1119.4	4
3	43494	1121.1	4
3	43568	1123	4
3	43662	1125.3	6
3	43668	1125.5	2
3	43766	1127.9	1
3	44032	1134.6	4
3	44050	1135	7
3	44112	1136.6	4
3	44148	1137.5	4
3	44210	1139	6
3	44308	1141.5	7
3	44398	1143.7	4
3	44578	1148.2	3
3	44724	1151.9	7
3	44746	1152.4	5
3	44900	1156.3	3
3	44930	1157	4
3	44940	1157.3	5
3	45028	1159.5	3
3	45108	1161.5	3
3	45144	1162.4	4
3	45188	1163.5	1
3	45376	1168.2	1
3	45390	1168.5	2
3	45454	1170.1	4
3	45670	1175.5	7
3	45702	1176.3	4
3	45750	1177.5	5
3	45828	1179.5	5
3	45904	1181.4	4
3	46012	1184.1	3
3	46116	1186.7	7
3	46218	1189.2	7
3	46372	1193.1	5
3	46694	1201.1	5
3	46756	1202.7	4
3	46858	1205.2	2
3	46906	1206.4	5
3	46912	1206.6	1
3	47018	1209.2	4
3	47140	1212.3	3
3	47214	1214.1	7
3	47530	1222	3
3	47892	1231.1	7
3	47948	1232.5	5
3	48112	1236.6	3
3	48274	1240.6	6
3	48360	1242.8	3
3	48378	1243.2	4
3	48488	1246	5
3	48522	1246.8	6
3	48692	1251.1	4
3	48730	1252	2
3	48748	1252.5	6
3	48794	1253.6	4
3	48878	1255.7	1
3	48924	1256.9	7
3	49054	1260.1	5
3	49288	1266	5
3	49360	1267.8	4
3	49466	1270.4	3
3	49472	1270.6	6
3	49498	1271.2	1
3	49582	1273.3	4
3	49616	1274.2	3
3	49744	1277.4	6
3	49754	1277.6	3
3	49824	1279.4	5
3	50018	1284.2	2
3	50360	1292.8	3
3	50460	1295.3	3
3	50520	1296.8	4
3	50568	1298	4
3	50610	1299	4
3	50620	1299.3	1
3	50678	1300.7	3
3	50724	1301.9	2
3	50730	1302	2
3	50804	1303.9	4
3	50882	1305.8	5
3	51034	1309.6	1
3	51048	1310	4
3	51166	1312.9	4
3	51202	1313.8	4
3	51232	1314.6	1
3	51424	1319.4	6
3	51484	1320.9	2
3	51586	1323.4	4
3	51602	1323.8	2
3	51650	1325	7
3	51658	1325.2	1
3	51818	1329.2	4
3	51928	1332	5
3	52054	1335.1	2
3	52096	1336.2	2
3	52110	1336.5	3
3	52162	1337.8	1
3	52188	1338.5	7
3	52194	1338.6	4
3	52234	1339.6	5
3	52288	1341	1
3	52306	1341.4	5
3	52336	1342.2	4
3	52346	1342.4	4
3	52458	1345.2	4
3	52460	1345.3	2
3	52768	1353	1
3	52784	1353.4	2
3	52920	1356.8	5
3	53000	1358.8	4
3	53022	1359.3	4
3	53128	1362	4
3	53266	1365.4	7
3	53272	1365.6	7
3	53366	1367.9	6
3	53438	1369.7	3
3	53606	1373.9	6
3	53878	1380.7	4
3	53902	1381.3	3
3	54200	1388.8	4
3	54268	1390.5	5
3	54286	1390.9	4
3	54308	1391.5	5
3	54438	1394.7	7
3	54662	1400.3	4
3	54708	1401.5	4
3	54826	1404.4	1
3	54884	1405.9	6
3	54924	1406.9	2
3	55012	1409.1	4
3	55168	1413	2
3	55268	1415.5	2
3	55362	1417.8	3
3	55412	1419.1	1
3	55460	1420.3	3
3	55894	1431.1	4
3	56018	1434.2	6
3	56122	1436.8	6
3	56240	1439.8	4
3	56270	1440.5	4
3	56304	1441.4	5
3	56338	1442.2	5
3	56412	1444.1	3
3	56460	1445.3	5
3	56800	1453.8	1
3	56866	1455.4	3
3	56922	1456.8	6
3	57088	1461	5
3	57118	1461.7	5
3	57232	1464.6	3
3	57246	1464.9	5
3	57352	1467.6	3
3	57460	1470.3	2
3	57560	1472.8	3
3	57696	1476.2	1
3	57736	1477.2	2
3	57944	1482.4	5
3	58098	1486.2	6
3	58184	1488.4	4
3	58362	1492.8	2
3	58520	1496.8	5
3	58580	1498.3	6
3	58628	1499.5	2
3	58732	1502.1	4
3	58800	1503.8	4
3	58952	1507.6	4
3	59106	1511.4	1
3	59174	1513.1	4
3	59298	1516.2	3
3	59402	1518.8	1
3	59428	1519.5	5
3	59512	1521.6	3
3	59754	1527.6	7
3	59968	1533	2
3	59974	1533.1	4
3	60032	1534.6	4
3	60254	1540.1	5
3	60488	1546	2
3	60646	1549.9	5
3	60718	1551.7	4
3	60728	1552	7
3	60768	1553	5
3	60856	1555.2	7
3	60924	1556.9	7
3	61026	1559.4	5
3	61086	1560.9	4
3	61124	1561.9	4
3	61190	1563.5	3
3	61232	1564.6	4
3	61262	1565.3	4
3	61316	1566.7	3
3	61528	1572	7
3	61570	1573	7
3	61634	1574.6	5
3	61726	1576.9	2
3	61922	1581.8	5
3	61932	1582.1	4
3	62126	1586.9	7
3	62148	1587.5	3
3	62292	1591.1	6
3	62298	1591.2	1
3	62340	1592.3	7
3	62342	1592.3	4
3	62412	1594.1	6
3	62414	1594.1	4
3	62494	1596.1	6
3	62540	1597.3	6
3	62566	1597.9	3
3	62612	1599.1	7
3	62620	1599.3	1
3	62656	1600.2	4
3	62680	1600.8	3
3	62752	1602.6	4
3	62816	1604.2	3
3	63000	1608.8	6
3	63016	1609.2	2
3	63164	1612.9	6
3	63214	1614.1	4
3	63344	1617.4	5
3	63420	1619.3	7
3	63500	1621.3	2
3	63644	1624.9	7
3	63654	1625.1	6
3	63744	1627.4	2
3	63786	1628.4	4
3	63826	1629.4	4
3	63914	1631.6	4
3	63966	1632.9	4
3	64050	1635	3
3	64120	1636.8	5
3	64158	1637.7	6
3	64206	1638.9	5
3	64364	1642.9	2
3	64414	1644.1	2
3	64424	1644.4	6
3	64504	1646.4	4
3	64522	1646.8	1
3	64560	1647.8	5
3	64608	1649	3
3	64648	1650	4
3	64678	1650.7	3
3	64708	1651.5	1
3	64818	1654.2	7
3	64884	1655.9	5
3	64932	1657.1	2
3	64972	1658.1	3
3	65008	1659	4
3	65128	1662	6
3	65218	1664.2	1
3	65352	1667.6	3
3	65462	1670.3	2
3	65492	1671.1	3
3	65540	1672.3	3
3	65580	1673.3	3
3	65686	1675.9	3
3	65824	1679.4	3
3	65856	1680.2	2
3	66012	1684.1	3
3	66090	1686	4
3	66250	1690	3
3	66282	1690.8	3
3	66304	1691.4	4
3	66314	1691.6	4
3	66402	1693.8	4
3	66418	1694.2	2
3	66456	1695.2	2
3	66500	1696.3	2
3	66546	1697.4	2
3	66592	1698.6	3
3	66708	1701.5	4
3	66838	1704.7	1
3	66886	1705.9	7
3	66940	1707.3	4
3	66988	1708.5	7
3	67082	1710.8	7
3	67208	1714	7
3	67240	1714.8	4
3	67290	1716	1
3	67430	1719.5	5
3	67476	1720.7	7
3	67516	1721.7	4
3	67526	1721.9	4
3	67604	1723.9	7
3	67626	1724.4	1
3	67634	1724.6	1
3	67664	1725.4	4
3	67846	1729.9	3
3	67978	1733.2	4
3	68060	1735.3	3
3	68142	1737.3	3
3	68150	1737.5	1
3	68202	1738.8	2
3	68238	1739.7	4
3	68448	1745	1
3	68522	1746.8	3
3	68656	1750.2	3
3	68670	1750.5	2
3	68790	1753.5	4
3	68858	1755.2	4
3	68928	1757	3
3	69078	1760.7	4
3	69106	1761.4	1
3	69178	1763.2	2
3	69186	1763.4	1
3	69438	1769.7	1
3	69604	1773.9	2
3	69628	1774.5	3
3	69758	1777.7	2
3	69760	1777.8	5
3	69864	1780.4	5
3	69904	1781.4	3
3	69954	1782.6	4
3	69976	1783.2	4
3	70212	1789.1	3
3	70260	1790.3	4
3	70300	1791.3	4
3	70364	1792.9	6
3	70412	1794.1	3
3	70502	1796.3	6
3	70532	1797.1	6
3	70574	1798.1	4
3	70698	1801.2	4
3	70772	1803.1	4
3	71358	1817.7	6
3	71392	1818.6	1
4	168	7.2	2
4	321	14.1	1
4	387	17	2
4	445	19.6	5
4	534	23.5	2
4	1440	63.7	5
4	1547	68.7	5
4	1559	69.3	3
4	1625	72.3	4
4	1708	76.1	5
4	1790	80.2	4
4	1937	84.6	2
4	1988	85.7	5
4	2006	86.2	3
4	2032	86.8	5
4	2172	90.2	5
4	2206	91	5
4	2208	91.1	5
4	2251	92.1	4
4	2280	92.6	4
4	2517	98.2	1
4	2584	99.8	1
4	2648	101.3	4
4	2704	102.7	5
4	2939	108.3	2
4	3029	110.4	2
4	3403	119.3	1
4	3430	119.9	4
4	3533	122.4	2
4	3571	123.4	5
4	3648	125.3	4
4	3682	126	4
4	3706	126.6	2
4	3776	128.4	4
4	4022	134.5	4
4	4028	134.7	4
4	4090	136.2	4
4	4114	136.8	3
4	4189	138.6	1
4	4211	139.2	2
4	4251	140.2	5
4	4465	145.5	4
4	4497	146.3	2
4	4803	153.9	5
4	4817	154.3	4
4	4867	155.5	3
4	4905	156.5	2
4	4937	157.3	2
4	5112	161.7	2
4	5306	166.5	1
4	5534	172.2	4
4	5578	173.3	5
4	5592	173.7	5
4	5628	174.6	4
4	5684	176	5
4	5742	177.4	1
4	5778	178.3	4
4	5788	178.6	5
4	5908	181.6	5
4	5980	183.4	1
4	6068	185.6	1
4	6084	186	1
4	6170	188.1	2
4	6188	188.6	4
4	6224	189.5	4
4	6304	191.5	5
4	6382	193.4	1
4	6446	195	3
4	6716	201.7	2
4	6914	206.6	3
4	6982	208.3	4
4	7112	211.6	5
4	7152	212.6	5
4	7170	213	4
4	7178	213.2	1
4	7184	213.4	2
4	7260	215.3	2
4	7380	218.3	5
4	7386	218.4	5
4	7530	222	4
4	7728	227	5
4	7818	229.2	4
4	8318	241.7	5
4	8458	245.2	2
4	8640	249.8	2
4	8650	250	1
4	8690	251	1
4	8794	253.6	5
4	8904	256.4	3
4	8920	256.8	1
4	9016	259.2	5
4	9156	262.7	5
4	9492	271.1	3
4	9668	275.5	2
4	9816	279.2	3
4	9964	282.9	5
4	9980	283.3	3
4	10094	286.1	5
4	10146	287.4	1
4	10180	288.3	1
4	10182	288.3	3
4	10282	290.8	2
4	10288	291	4
4	10394	293.6	4
4	10396	293.7	1
4	10450	295	1
4	10474	295.6	4
4	10530	297	5
4	10626	299.4	4
4	10746	302.4	3
4	10802	303.8	5
4	10824	304.4	5
4	10878	305.7	5
4	11012	309.1	3
4	11030	309.5	4
4	11220	314.3	5
4	11230	314.5	2
4	11282	315.8	4
4	11390	318.5	4
4	11416	319.2	3
4	11578	323.2	4
4	11616	324.2	2
4	11642	324.8	5
4	11696	326.2	3
4	11960	332.8	1
4	12030	334.5	3
4	12116	336.7	3
4	12188	338.5	2
4	12326	341.9	3
4	12348	342.5	4
4	12396	343.7	4
4	12410	344	5
4	12446	344.9	5
4	12468	345.5	5
4	12546	347.4	5
4	12648	350	2
4	12682	350.8	5
4	12852	355.1	4
4	12882	355.8	4
4	13044	359.9	2
4	13194	363.6	3
4	13212	364.1	5
4	13242	364.8	5
4	13308	366.5	4
4	13316	366.7	1
4	13386	368.4	4
4	13654	375.1	4
4	13792	378.6	4
4	13864	380.4	5
4	13872	380.6	1
4	13890	381	2
4	14144	387.4	1
4	14184	388.4	5
4	14190	388.5	2
4	14430	394.5	5
4	14500	396.3	2
4	14560	397.8	4
4	14774	403.1	1
4	14790	403.5	2
4	14928	407	5
4	15092	411.1	5
4	15094	411.1	1
4	15236	414.7	4
4	15270	415.5	2
4	15324	416.9	5
4	15382	418.3	5
4	15388	418.5	5
4	15432	419.6	2
4	15506	421.4	2
4	15548	422.5	5
4	15564	422.9	1
4	15756	427.7	4
4	15828	429.5	3
4	15876	430.7	3
4	15922	431.8	5
4	15948	432.5	1
4	16150	437.5	4
4	16196	438.7	2
4	16516	446.7	3
4	16640	449.8	2
4	16674	450.6	1
4	16752	452.6	4
4	16832	454.6	4
4	16842	454.8	5
4	16898	456.2	3
4	16954	457.6	5
4	17000	458.8	3
4	17018	459.2	1
4	17100	461.3	5
4	17150	462.5	2
4	17244	464.9	1
4	17528	472	5
4	17626	474.4	3
4	18018	484.2	3
4	18172	488.1	3
4	18258	490.2	1
4	18264	490.4	3
4	18414	494.1	1
4	18582	498.3	4
4	18608	499	4
4	18748	502.5	4
4	18840	504.8	4
4	19094	511.1	4
4	19132	512.1	1
4	19288	516	1
4	19462	520.3	5
4	19512	521.6	2
4	19518	521.7	1
4	19648	525	1
4	19688	526	3
4	19784	528.4	5
4	20186	538.4	1
4	20224	539.4	4
4	20478	545.7	5
4	20586	548.4	2
4	20600	548.8	4
4	20888	556	4
4	20942	557.3	5
4	20944	557.4	1
4	21158	562.7	2
4	21192	563.6	5
4	21262	565.3	3
4	21374	568.1	2
4	21416	569.2	2
4	21422	569.3	2
4	21470	570.5	3
4	21510	571.5	5
4	21606	573.9	5
4	21708	576.5	5
4	21816	579.2	4
4	21944	582.4	3
4	22120	586.8	2
4	22152	587.6	2
4	22248	590	4
4	22336	592.2	4
4	22350	592.5	3
4	22368	593	2
4	22490	596	4
4	22786	603.4	1
4	22856	605.2	3
4	22896	606.2	5
4	22968	608	4
4	22992	608.6	4
4	23016	609.2	3
4	23188	613.5	4
4	23362	617.8	4
4	23388	618.5	2
4	23482	620.8	3
4	23590	623.5	5
4	23702	626.3	5
4	23804	628.9	1
4	23874	630.6	4
4	24148	637.5	5
4	24198	638.7	2
4	24260	640.3	4
4	24300	641.3	5
4	24306	641.4	5
4	24394	643.6	4
4	24432	644.6	2
4	24526	646.9	4
4	24746	652.4	3
4	24874	655.6	2
4	24880	655.8	1
4	24904	656.4	4
4	24936	657.2	4
4	24942	657.3	5
4	25006	658.9	5
4	25108	661.5	1
4	25308	666.5	4
4	25326	666.9	5
4	25438	669.7	2
4	25486	670.9	4
4	25518	671.7	3
4	25520	671.8	2
4	25592	673.6	3
4	25842	679.8	2
4	25958	682.7	5
4	26052	685.1	1
4	26126	686.9	3
4	26150	687.5	3
4	26202	688.8	4
4	26278	690.7	2
4	26422	694.3	5
4	26574	698.1	5
4	26768	703	5
4	26798	703.7	1
4	26834	704.6	4
4	26884	705.9	2
4	26956	707.7	3
4	26996	708.7	5
4	27078	710.7	5
4	27130	712	4
4	27482	720.8	4
4	27504	721.4	5
4	27514	721.6	3
4	27650	725	1
4	27698	726.2	5
4	27754	727.6	4
4	27762	727.8	1
4	27812	729.1	2
4	27944	732.4	1
4	28020	734.3	5
4	28302	741.3	5
4	28366	742.9	2
4	28388	743.5	4
4	28498	746.2	4
4	28554	747.6	1
4	28592	748.6	3
4	28648	750	1
4	28650	750	4
4	28680	750.8	4
4	28686	750.9	1
4	28702	751.3	1
4	28792	753.6	3
4	28824	754.4	2
4	28868	755.5	5
4	28950	757.5	1
4	29074	760.6	3
4	29114	761.6	3
4	29132	762.1	2
4	29244	764.9	3
4	29492	771.1	2
4	29762	777.8	5
4	29792	778.6	4
4	29908	781.5	5
4	29930	782	3
4	29962	782.8	4
4	30076	785.7	1
4	30132	787.1	4
4	30172	788.1	2
4	30230	789.5	4
4	30322	791.8	4
4	30336	792.2	4
4	30458	795.2	5
4	30494	796.1	5
4	30540	797.3	5
4	30638	799.7	5
4	30674	800.6	4
4	30822	804.3	5
4	30968	808	5
4	31112	811.6	4
4	31268	815.5	1
4	31382	818.3	3
4	31428	819.5	4
4	31786	828.4	2
4	31796	828.7	1
4	31898	831.2	3
4	32008	834	2
4	32082	835.8	1
4	32140	837.3	1
4	32142	837.3	5
4	32182	838.3	5
4	32280	840.8	1
4	32352	842.6	2
4	32578	848.2	4
4	32626	849.4	3
4	32636	849.7	3
4	32746	852.4	1
4	32756	852.7	5
4	32798	853.7	2
4	32878	855.7	5
4	32884	855.9	4
4	32924	856.9	1
4	33062	860.3	5
4	33204	863.9	4
4	33260	865.3	2
4	33746	877.4	4
4	33878	880.7	1
4	33914	881.6	4
4	34004	883.9	4
4	34042	884.8	1
4	34096	886.2	2
4	34114	886.6	2
4	34202	888.8	1
4	34360	892.8	2
4	34564	897.9	1
4	34700	901.3	4
4	34762	902.8	4
4	34828	904.5	3
4	35132	912.1	1
4	35238	914.7	3
4	35392	918.6	1
4	35646	924.9	2
4	35704	926.4	5
4	35728	927	4
4	35786	928.4	4
4	35860	930.3	4
4	35894	931.1	1
4	35948	932.5	3
4	36002	933.8	2
4	36020	934.3	5
4	36058	935.2	4
4	36140	937.3	4
4	36382	943.3	4
4	36392	943.6	1
4	36424	944.4	2
4	36598	948.7	5
4	36702	951.3	3
4	36972	958.1	3
4	37042	959.8	4
4	37098	961.2	3
4	37264	965.4	1
4	37304	966.4	3
4	37404	968.9	5
4	37470	970.5	5
4	37558	972.7	3
4	37632	974.6	2
4	37654	975.1	1
4	37700	976.3	3
4	37718	976.7	5
4	38042	984.8	4
4	38078	985.7	5
4	38128	987	5
4	38238	989.7	4
4	38520	996.8	5
4	38552	997.6	3
4	38656	1000.2	2
4	38686	1000.9	4
4	38782	1003.3	5
4	38854	1005.1	1
4	38962	1007.8	5
4	39040	1009.8	2
4	39096	1011.2	5
4	39106	1011.4	1
4	39154	1012.6	3
4	39304	1016.4	2
4	39354	1017.6	5
4	39400	1018.8	4
4	39432	1019.6	2
4	39462	1020.3	4
4	39518	1021.7	4
4	39666	1025.4	2
4	39722	1026.8	3
4	39738	1027.2	2
4	39860	1030.3	5
4	39998	1033.7	1
4	40012	1034.1	5
4	40216	1039.2	5
4	40266	1040.4	1
4	40340	1042.3	2
4	40410	1044	5
4	40420	1044.3	3
4	40452	1045.1	3
4	40576	1048.2	4
4	40762	1052.8	2
4	40954	1057.6	2
4	41040	1059.8	3
4	41270	1065.5	4
4	41394	1068.6	2
4	41476	1070.7	5
4	41542	1072.3	3
4	41572	1073.1	2
4	41578	1073.2	5
4	41612	1074.1	5
4	41716	1076.7	2
4	41722	1076.8	2
4	41740	1077.3	4
4	41820	1079.3	2
4	41834	1079.6	4
4	41898	1081.2	3
4	42114	1086.6	3
4	42310	1091.5	4
4	42366	1092.9	4
4	42418	1094.2	5
4	42636	1099.7	1
4	42734	1102.1	4
4	42854	1105.1	1
4	42896	1106.2	2
4	43128	1112	5
4	43276	1115.7	1
4	43590	1123.5	3
4	43604	1123.9	4
4	43688	1126	5
4	43902	1131.3	4
4	43942	1132.3	4
4	44006	1133.9	2
4	44092	1136.1	3
4	44200	1138.8	5
4	44370	1143	5
4	44456	1145.2	4
4	44462	1145.3	5
4	44478	1145.7	2
4	44534	1147.1	4
4	44608	1149	5
4	44614	1149.1	4
4	44648	1150	1
4	44662	1150.3	2
4	44726	1151.9	1
4	44830	1154.5	5
4	44866	1155.4	4
4	44920	1156.8	5
4	45164	1162.9	5
4	45224	1164.4	3
4	45240	1164.8	3
4	45336	1167.2	1
4	45410	1169	5
4	45452	1170.1	1
4	45522	1171.8	3
4	45560	1172.8	1
4	45608	1174	2
4	45730	1177	5
4	45854	1180.1	4
4	45886	1180.9	2
4	46030	1184.5	3
4	46070	1185.5	2
4	46224	1189.4	1
4	46258	1190.2	5
4	46352	1192.6	4
4	46462	1195.3	5
4	46472	1195.6	1
4	46584	1198.4	5
4	46608	1199	3
4	46640	1199.8	4
4	46730	1202	4
4	46878	1205.7	5
4	46956	1207.7	3
4	46980	1208.3	1
4	47024	1209.4	5
4	47078	1210.7	3
4	47118	1211.7	1
4	47280	1215.8	2
4	47328	1217	4
4	47368	1218	5
4	47544	1222.4	5
4	47714	1226.6	1
4	47772	1228.1	2
4	47928	1232	2
4	48022	1234.3	4
4	48068	1235.5	1
4	48134	1237.1	5
4	48190	1238.5	5
4	48264	1240.4	5
4	48358	1242.7	1
4	48404	1243.9	3
4	48592	1248.6	5
4	48712	1251.6	5
4	48768	1253	3
4	48814	1254.1	5
4	48864	1255.4	3
4	48888	1256	4
4	48962	1257.8	4
4	49032	1259.6	1
4	49202	1263.8	2
4	49242	1264.8	3
4	49268	1265.5	4
4	49370	1268	1
4	49380	1268.3	2
4	49422	1269.3	5
4	49492	1271.1	5
4	49618	1274.2	4
4	49652	1275.1	4
4	49676	1275.7	4
4	49764	1277.9	5
4	49790	1278.5	1
4	49804	1278.9	5
4	49964	1282.9	4
4	49982	1283.3	5
4	50076	1285.7	3
4	50116	1286.7	4
4	50264	1290.4	5
4	50346	1292.4	2
4	50442	1294.8	2
4	50540	1297.3	5
4	50954	1307.6	4
4	51222	1314.3	4
4	51380	1318.3	1
4	51464	1320.4	1
4	51494	1321.1	3
4	51798	1328.7	1
4	51908	1331.5	4
4	51948	1332.5	5
4	51974	1333.1	5
4	52044	1334.9	4
4	52074	1335.6	5
4	52076	1335.7	2
4	52214	1339.1	5
4	52278	1340.7	3
4	52416	1344.2	1
4	52480	1345.8	5
4	52554	1347.6	1
4	52696	1351.2	1
4	52754	1352.6	4
4	52770	1353	3
4	52812	1354.1	2
4	52892	1356.1	1
4	52914	1356.6	4
4	53084	1360.9	1
4	53200	1363.8	2
4	53420	1369.3	3
4	53760	1377.8	1
4	53786	1378.4	4
4	54148	1387.5	4
4	54180	1388.3	3
4	54234	1389.6	3
4	54248	1390	5
4	54306	1391.4	5
4	54448	1395	3
4	54458	1395.2	5
4	54524	1396.9	2
4	54548	1397.5	3
4	54610	1399	3
4	54652	1400.1	4
4	54682	1400.8	5
4	54730	1402	4
4	54746	1402.4	3
4	54784	1403.4	5
4	54862	1405.3	4
4	54904	1406.4	5
4	55244	1414.9	4
4	55262	1415.3	4
4	55426	1419.4	2
4	55500	1421.3	1
4	55564	1422.9	1
4	55574	1423.1	1
4	55628	1424.5	1
4	55676	1425.7	4
4	55812	1429.1	1
4	55892	1431.1	1
4	56088	1436	1
4	56156	1437.7	4
4	56180	1438.3	4
4	56284	1440.9	4
4	56318	1441.7	4
4	56376	1443.2	4
4	56440	1444.8	2
4	56480	1445.8	5
4	56622	1449.3	2
4	56962	1457.8	5
4	56964	1457.9	5
4	57068	1460.5	3
4	57124	1461.9	1
4	57150	1462.5	3
4	57226	1464.4	4
4	57322	1466.8	3
4	57466	1470.4	3
4	57482	1470.8	1
4	57534	1472.1	4
4	57702	1476.3	1
4	57860	1480.3	2
4	57900	1481.3	5
4	57924	1481.9	4
4	57950	1482.5	1
4	57996	1483.7	3
4	58256	1490.2	4
4	58292	1491.1	4
4	58430	1494.5	4
4	58470	1495.5	1
4	58486	1495.9	1
4	58510	1496.5	2
4	58608	1499	4
4	58648	1500	1
4	58650	1500	2
4	58658	1500.2	1
4	58798	1503.7	2
4	58846	1504.9	2
4	58924	1506.9	2
4	58942	1507.3	2
4	58998	1508.7	5
4	59008	1509	3
4	59084	1510.9	4
4	59312	1516.6	2
4	59408	1519	4
4	59484	1520.9	3
4	59534	1522.1	2
4	59540	1522.3	4
4	59572	1523.1	3
4	59692	1526.1	3
4	59718	1526.7	3
4	59774	1528.1	5
4	59790	1528.5	2
4	59808	1529	1
4	60012	1534.1	4
4	60164	1537.9	4
4	60234	1539.6	4
4	60268	1540.5	4
4	60324	1541.9	5
4	60538	1547.2	1
4	60626	1549.4	1
4	60644	1549.9	2
4	60682	1550.8	4
4	60794	1553.6	5
4	60968	1558	4
4	61144	1562.4	2
4	61196	1563.7	5
4	61210	1564	1
4	61380	1568.3	3
4	61402	1568.8	1
4	61440	1569.8	3
4	61474	1570.6	4
4	61526	1571.9	5
4	61654	1575.1	5
4	61690	1576	3
4	61854	1580.1	1
4	61902	1581.3	2
4	62042	1584.8	2
4	62090	1586	4
4	62238	1589.7	1
4	62274	1590.6	5
4	62368	1593	1
4	62538	1597.2	3
4	62560	1597.8	5
4	62586	1598.4	5
4	62682	1600.8	2
4	62802	1603.8	1
4	62864	1605.4	4
4	62882	1605.8	5
4	62906	1606.4	2
4	62970	1608	2
4	63324	1616.9	5
4	63376	1618.2	3
4	63538	1622.2	4
4	63766	1627.9	4
4	63872	1630.6	4
4	63928	1632	5
4	63986	1633.4	2
4	64100	1636.3	3
4	64282	1640.8	2
4	64540	1647.3	4
4	64668	1650.5	3
4	64878	1655.7	4
4	64918	1656.7	4
4	64952	1657.6	2
4	64970	1658	5
4	65028	1659.5	5
4	65058	1660.2	4
4	65276	1665.7	1
4	65362	1667.8	3
4	65432	1669.6	5
4	65456	1670.2	3
4	65602	1673.8	3
4	65810	1679	4
4	65976	1683.2	3
4	66110	1686.5	5
4	66140	1687.3	5
4	66366	1692.9	2
4	66408	1694	4
4	66476	1695.7	5
4	66622	1699.3	3
4	67016	1709.2	2
4	67052	1710.1	5
4	67280	1715.8	5
4	67410	1719	5
4	67644	1724.9	5
4	67746	1727.4	3
4	68018	1734.2	1
4	68078	1735.7	5
4	68080	1735.8	5
4	68170	1738	5
4	68248	1740	1
4	68258	1740.2	5
4	68628	1749.5	3
4	68690	1751	5
4	68738	1752.2	3
4	68756	1752.7	4
4	68902	1756.3	2
4	68948	1757.5	5
4	68986	1758.4	4
4	69026	1759.4	1
4	69040	1759.8	4
4	69206	1763.9	5
4	69372	1768.1	3
4	69398	1768.7	3
4	69458	1770.2	5
4	69494	1771.1	3
4	69534	1772.1	1
4	69664	1775.4	4
4	69732	1777.1	5
4	69844	1779.9	2
4	70004	1783.9	2
4	70144	1787.4	4
4	70150	1787.5	4
4	70174	1788.1	4
4	70318	1791.7	1
4	70358	1792.7	2
4	70434	1794.6	2
4	70464	1795.4	3
4	70530	1797	2
4	70614	1799.1	2
4	70774	1803.1	5
4	70930	1807	1
4	71098	1811.2	1
4	71122	1811.8	3
4	71186	1813.4	3
4	71216	1814.2	1
4	71284	1815.9	4
4	71360	1817.8	4
5	216	9.3	6
5	397	17.5	5
5	489	21.5	5
5	597	26.3	3
5	853	37.6	5
5	1093	47.9	3
5	1282	56.3	7
5	1456	64.5	2
5	1489	66.1	3
5	1511	67.2	2
5	1633	72.7	4
5	1741	77.7	1
5	1907	83.8	5
5	1965	85.2	3
5	2012	86.3	2
5	2048	87.2	4
5	2152	89.7	2
5	2188	90.6	2
5	2405	95.7	7
5	2448	96.6	7
5	2483	97.4	8
5	2533	98.6	3
5	2765	104.3	3
5	2873	106.7	2
5	2915	107.7	1
5	3045	110.8	4
5	3172	114	6
5	3353	118	5
5	3393	119	6
5	3461	120.6	2
5	3519	122.1	2
5	3551	122.9	5
5	3601	124.1	1
5	3912	131.8	6
5	4054	135.3	3
5	4221	139.4	6
5	4267	140.6	4
5	4333	142.2	2
5	4495	146.3	5
5	4682	150.9	7
5	4743	152.4	2
5	4783	153.4	6
5	4955	157.7	3
5	5008	159.1	6
5	5022	159.4	6
5	5080	160.9	7
5	5162	162.9	6
5	5284	166	6
5	5420	169.4	6
5	5460	170.4	6
5	5500	171.4	5
5	5558	172.8	5
5	5710	176.6	1
5	5874	180.7	3
5	5918	181.8	2
5	5932	182.2	2
5	5956	182.8	3
5	5966	183	1
5	6086	186	7
5	6318	191.8	3
5	6462	195.4	4
5	6488	196.1	6
5	6616	199.2	2
5	6692	201.1	1
5	6832	204.6	2
5	6850	205	1
5	7046	209.9	6
5	7086	210.9	1
5	7306	216.4	7
5	7366	217.9	1
5	7428	219.5	3
5	7458	220.2	5
5	7466	220.4	1
5	7548	222.5	2
5	7708	226.5	1
5	7768	228	7
5	7966	232.9	3
5	8022	234.3	7
5	8072	235.6	3
5	8110	236.5	2
5	8132	237.1	2
5	8164	237.9	2
5	8348	242.5	7
5	8370	243	1
5	8496	246.2	1
5	8722	251.8	6
5	8816	254.2	1
5	8938	257.2	3
5	9034	259.6	7
5	9136	262.2	7
5	9206	263.9	3
5	9290	266	5
5	9374	268.1	3
5	9388	268.5	6
5	9414	269.1	6
5	9420	269.3	2
5	9498	271.2	3
5	9540	272.3	3
5	9586	273.4	3
5	9596	273.7	2
5	9674	275.6	3
5	9764	277.9	2
5	9782	278.3	1
5	9870	280.5	6
5	9880	280.8	6
5	9944	282.4	3
5	10002	283.8	6
5	10046	284.9	1
5	10058	285.2	1
5	10066	285.4	1
5	10110	286.5	4
5	10136	287.2	7
5	10162	287.8	1
5	10198	288.7	4
5	10216	289.2	2
5	10240	289.8	3
5	10412	294.1	4
5	10536	297.2	3
5	10712	301.6	5
5	10748	302.5	2
5	10804	303.9	2
5	10818	304.2	4
5	10834	304.6	2
5	10858	305.2	1
5	11182	313.3	1
5	11184	313.4	7
5	11200	313.8	1
5	11298	316.2	4
5	11320	316.8	3
5	11392	318.6	7
5	11432	319.6	4
5	11546	322.4	1
5	11552	322.6	6
5	11772	328.1	1
5	11848	330	7
5	11882	330.8	6
5	11946	332.4	3
5	11958	332.7	1
5	11982	333.3	3
5	12036	334.7	3
5	12228	339.5	3
5	12426	344.4	1
5	12650	350	7
5	12662	350.3	1
5	12744	352.4	3
5	12806	353.9	3
5	12822	354.3	2
5	12868	355.5	4
5	13076	360.7	2
5	13222	364.3	2
5	13274	365.6	6
5	13338	367.2	5
5	13452	370.1	2
5	13526	371.9	5
5	13574	373.1	1
5	13618	374.2	6
5	13628	374.5	3
5	13670	375.5	4
5	13676	375.7	7
5	13754	377.6	1
5	13756	377.7	3
5	14066	385.4	2
5	14108	386.5	6
5	14384	393.4	6
5	14464	395.4	2
5	14542	397.3	2
5	14626	399.4	7
5	14632	399.6	6
5	14638	399.7	1
5	14860	405.3	3
5	14946	407.4	7
5	14960	407.8	1
5	15172	413.1	1
5	15196	413.7	3
5	15214	414.1	1
5	15304	416.4	2
5	15354	417.6	7
5	15522	421.8	4
5	15570	423	5
5	15668	425.5	1
5	15682	425.8	7
5	15902	431.3	3
5	15980	433.3	3
5	16020	434.3	5
5	16280	440.8	3
5	16416	444.2	7
5	16690	451	4
5	16720	451.8	3
5	16768	453	2
5	16770	453	3
5	16784	453.4	2
5	17110	461.5	5
5	17210	464	2
5	17348	467.5	3
5	17470	470.5	6
5	17508	471.5	7
5	17714	476.6	7
5	17724	476.9	6
5	17806	478.9	6
5	17820	479.3	2
5	17894	481.1	2
5	17962	482.8	2
5	18000	483.8	6
5	18034	484.6	4
5	18056	485.2	5
5	18144	487.4	6
5	18194	488.6	2
5	18218	489.2	2
5	18368	493	1
5	18524	496.9	2
5	18648	500	5
5	18738	502.2	3
5	18792	503.6	3
5	18858	505.2	7
5	18864	505.4	1
5	18904	506.4	6
5	18962	507.8	7
5	19150	512.5	1
5	19160	512.8	1
5	19238	514.7	6
5	19424	519.4	6
5	19528	522	4
5	19544	522.4	2
5	19612	524.1	3
5	19682	525.8	2
5	19748	527.5	3
5	19840	529.8	6
5	19964	532.9	7
5	20030	534.5	3
5	20120	536.8	3
5	20136	537.2	2
5	20202	538.8	4
5	20254	540.1	6
5	20266	540.4	1
5	20306	541.4	5
5	20370	543	3
5	20398	543.7	2
5	20446	544.9	3
5	20570	548	2
5	20640	549.8	1
5	20680	550.8	2
5	20720	551.8	3
5	20750	552.5	3
5	20848	555	1
5	20904	556.4	1
5	20974	558.1	3
5	21014	559.1	3
5	21020	559.3	2
5	21186	563.4	2
5	21224	564.4	2
5	21342	567.3	6
5	21532	572.1	2
5	21558	572.7	3
5	21674	575.6	2
5	21794	578.6	2
5	21978	583.2	3
5	22034	584.6	7
5	22146	587.4	1
5	22182	588.3	2
5	22258	590.2	2
5	22366	592.9	4
5	22384	593.4	4
5	22398	593.7	5
5	22414	594.1	2
5	22540	597.3	2
5	22870	605.5	1
5	22918	606.7	6
5	22962	607.8	2
5	23108	611.5	1
5	23204	613.9	4
5	23230	614.5	7
5	23240	614.8	2
5	23252	615.1	1
5	23278	615.7	3
5	23292	616.1	6
5	23364	617.9	2
5	23410	619	1
5	23468	620.5	2
5	23570	623	1
5	23572	623.1	1
5	23640	624.8	3
5	23716	626.7	2
5	23772	628.1	1
5	23946	632.4	2
5	23956	632.7	1
5	24030	634.5	2
5	24098	636.2	1
5	24196	638.7	3
5	24286	640.9	6
5	24362	642.8	3
5	24466	645.4	2
5	24612	649.1	1
5	24708	651.5	1
5	24762	652.8	4
5	24826	654.4	7
5	24832	654.6	2
5	24864	655.4	3
5	24922	656.8	3
5	24986	658.4	1
5	24992	658.6	5
5	25208	664	6
5	25214	664.1	3
5	25224	664.4	2
5	25372	668.1	3
5	25398	668.7	3
5	25536	672.2	4
5	25622	674.3	3
5	25760	677.8	6
5	25762	677.8	3
5	25840	679.8	2
5	25880	680.8	2
5	25938	682.2	7
5	26112	686.6	2
5	26200	688.8	2
5	26302	691.3	5
5	26318	691.7	2
5	26372	693.1	1
5	26448	695	3
5	26536	697.2	2
5	26554	697.6	7
5	26680	700.8	5
5	26734	702.1	6
5	26748	702.5	6
5	26784	703.4	1
5	26824	704.4	6
5	26902	706.3	2
5	27012	709.1	3
5	27058	710.2	1
5	27402	718.8	5
5	27546	722.4	2
5	27672	725.6	6
5	27704	726.4	2
5	27842	729.8	2
5	27884	730.9	7
5	27908	731.5	3
5	28094	736.1	3
5	28130	737	1
5	28268	740.5	5
5	28382	743.3	4
5	28594	748.6	1
5	28990	758.5	3
5	29036	759.7	2
5	29050	760	2
5	29092	761.1	2
5	29246	764.9	6
5	29408	769	2
5	29506	771.4	6
5	29666	775.4	2
5	29718	776.7	2
5	29742	777.3	2
5	29786	778.4	1
5	29888	781	3
5	30060	785.3	2
5	30126	786.9	3
5	30268	790.5	7
5	30432	794.6	5
5	30438	794.7	2
5	30474	795.6	4
5	30564	797.9	1
5	30688	801	1
5	30706	801.4	1
5	30712	801.6	3
5	30838	804.7	3
5	30848	805	7
5	31024	809.4	2
5	31196	813.7	3
5	31210	814	2
5	31250	815	6
5	31350	817.5	6
5	31368	818	2
5	31510	821.5	2
5	31726	826.9	6
5	31812	829.1	4
5	32050	835	2
5	32204	838.9	7
5	32400	843.8	3
5	32498	846.2	6
5	32546	847.4	6
5	32706	851.4	3
5	32964	857.9	1
5	33004	858.9	2
5	33118	861.7	3
5	33290	866	1
5	33460	870.3	2
5	33836	879.7	6
5	33862	880.3	6
5	33938	882.2	1
5	34098	886.2	7
5	34144	887.4	3
5	34306	891.4	1
5	34470	895.5	3
5	34660	900.3	2
5	34670	900.5	1
5	34710	901.5	6
5	34778	903.2	4
5	34794	903.6	2
5	34844	904.9	4
5	34896	906.2	6
5	35028	909.5	1
5	35060	910.3	5
5	35082	910.8	2
5	35106	911.4	2
5	35160	912.8	2
5	35182	913.3	2
5	35346	917.4	5
5	35462	920.3	3
5	35628	924.5	1
5	35676	925.7	1
5	35684	925.9	1
5	35862	930.3	7
5	35900	931.3	2
5	36018	934.2	4
5	36036	934.7	4
5	36234	939.6	3
5	36440	944.8	4
5	36534	947.1	2
5	36566	947.9	1
5	36678	950.7	7
5	36688	951	3
5	36750	952.5	3
5	36866	955.4	2
5	37074	960.6	1
5	37114	961.6	4
5	37128	962	2
5	37202	963.8	3
5	37232	964.6	2
5	37364	967.9	2
5	37520	971.8	3
5	37548	972.5	3
5	37600	973.8	2
5	37734	977.1	4
5	37938	982.2	1
5	38058	985.2	4
5	38076	985.7	7
5	38100	986.3	3
5	38150	987.5	6
5	38192	988.6	3
5	38206	988.9	7
5	38402	993.8	1
5	38490	996	1
5	38500	996.3	6
5	38754	1002.6	2
5	38804	1003.9	6
5	38884	1005.9	3
5	38990	1008.5	2
5	39078	1010.7	7
5	39184	1013.4	1
5	39326	1016.9	7
5	39334	1017.1	1
5	39416	1019.2	4
5	39754	1027.6	1
5	39802	1028.8	3
5	39932	1032.1	3
5	40030	1034.5	2
5	40036	1034.7	5
5	40172	1038.1	3
5	40194	1038.6	3
5	40196	1038.7	3
5	40272	1040.6	6
5	40338	1042.2	6
5	40490	1046	5
5	40728	1052	7
5	40888	1056	5
5	40898	1056.2	1
5	41194	1063.6	2
5	41196	1063.7	2
5	41234	1064.6	6
5	41456	1070.2	2
5	41492	1071.1	4
5	41558	1072.7	4
5	41640	1074.8	2
5	41668	1075.5	2
5	41678	1075.7	6
5	41836	1079.7	1
5	41938	1082.2	3
5	42034	1084.6	1
5	42146	1087.4	2
5	42158	1087.7	1
5	42176	1088.2	3
5	42216	1089.2	3
5	42342	1092.3	3
5	42368	1093	7
5	42382	1093.3	4
5	42398	1093.7	2
5	42510	1096.5	2
5	42528	1097	5
5	42608	1099	6
5	42652	1100.1	4
5	42766	1102.9	3
5	42822	1104.3	7
5	42868	1105.5	7
5	42938	1107.2	2
5	43062	1110.3	1
5	43100	1111.3	5
5	43232	1114.6	7
5	43242	1114.8	3
5	43356	1117.7	1
5	43434	1119.6	2
5	43452	1120.1	7
5	43606	1123.9	4
5	43660	1125.3	6
5	43916	1131.7	6
5	43958	1132.7	4
5	43972	1133.1	1
5	44442	1144.8	1
5	44552	1147.6	3
5	44632	1149.6	1
5	44680	1150.8	6
5	44810	1154	7
5	44820	1154.3	6
5	44898	1156.2	1
5	45106	1161.4	1
5	45180	1163.3	4
5	45230	1164.5	3
5	45306	1166.4	3
5	45420	1169.3	6
5	45476	1170.7	2
5	45516	1171.7	6
5	45710	1176.5	2
5	45790	1178.5	5
5	45948	1182.5	6
5	45984	1183.4	1
5	46056	1185.2	6
5	46188	1188.5	7
5	46282	1190.8	2
5	46296	1191.2	1
5	46306	1191.4	3
5	46406	1193.9	6
5	46416	1194.2	2
5	46456	1195.2	6
5	46486	1195.9	2
5	46502	1196.3	2
5	46514	1196.6	1
5	46574	1198.1	7
5	46614	1199.1	2
5	46680	1200.8	1
5	46754	1202.6	5
5	46778	1203.2	3
5	46850	1205	7
5	46932	1207.1	2
5	46950	1207.5	2
5	47004	1208.9	2
5	47056	1210.2	6
5	47224	1214.4	3
5	47354	1217.6	6
5	47438	1219.7	6
5	47468	1220.5	1
5	47524	1221.9	7
5	47594	1223.6	3
5	47682	1225.8	5
5	47794	1228.6	3
5	47976	1233.2	2
5	48222	1239.3	2
5	48326	1241.9	2
5	48422	1244.3	2
5	48496	1246.2	2
5	48512	1246.6	2
5	48536	1247.2	2
5	48560	1247.8	1
5	48574	1248.1	6
5	48702	1251.3	3
5	48830	1254.5	3
5	49148	1262.5	7
5	49402	1268.8	5
5	49474	1270.6	1
5	49524	1271.9	6
5	49692	1276.1	4
5	49714	1276.6	6
5	49806	1278.9	4
5	49950	1282.5	2
5	50056	1285.2	6
5	50122	1286.8	7
5	50148	1287.5	6
5	50244	1289.9	7
5	50368	1293	2
5	50514	1296.6	1
5	50716	1301.7	6
5	50722	1301.8	6
5	50842	1304.8	7
5	50970	1308	4
5	51176	1313.2	2
5	51324	1316.9	6
5	51374	1318.1	1
5	51462	1320.3	1
5	51594	1323.6	2
5	51616	1324.2	3
5	51672	1325.6	1
5	51704	1326.4	1
5	51964	1332.9	4
5	52046	1334.9	3
5	52422	1344.3	6
5	52432	1344.6	4
5	52870	1355.5	6
5	53030	1359.5	2
5	53292	1366.1	2
5	53364	1367.9	1
5	53418	1369.2	6
5	53614	1374.1	2
5	53726	1376.9	6
5	53744	1377.4	7
5	53816	1379.2	1
5	53850	1380	6
5	53880	1380.8	1
5	53976	1383.2	3
5	54028	1384.5	6
5	54094	1386.1	3
5	54228	1389.5	3
5	54346	1392.4	5
5	54428	1394.5	7
5	54572	1398.1	1
5	54626	1399.4	4
5	54918	1406.7	3
5	54932	1407.1	2
5	54950	1407.5	5
5	55138	1412.2	5
5	55160	1412.8	3
5	55260	1415.3	3
5	55328	1417	5
5	55372	1418.1	3
5	55644	1424.9	4
5	55796	1428.7	2
5	55844	1429.9	5
5	55866	1430.4	5
5	55876	1430.7	2
5	55966	1432.9	5
5	56024	1434.4	6
5	56072	1435.6	1
5	56182	1438.3	3
5	56530	1447	6
5	56560	1447.8	2
5	56654	1450.1	6
5	56686	1450.9	5
5	56740	1452.3	5
5	56822	1454.3	6
5	56944	1457.4	6
5	57034	1459.6	3
5	57074	1460.6	6
5	57082	1460.8	1
5	57202	1463.8	2
5	57300	1466.3	1
5	57360	1467.8	2
5	57758	1477.7	5
5	57858	1480.2	3
5	57918	1481.7	7
5	57956	1482.7	1
5	58222	1489.3	3
5	58272	1490.6	4
5	58354	1492.6	2
5	58428	1494.5	6
5	58484	1495.9	7
5	58542	1497.3	6
5	58588	1498.5	2
5	58740	1502.3	2
5	58876	1505.7	7
5	59140	1512.3	6
5	59180	1513.3	6
5	59182	1513.3	1
5	59376	1518.2	1
5	59382	1518.3	5
5	59550	1522.5	4
5	59708	1526.5	4
5	59870	1530.5	6
5	59930	1532	7
5	59960	1532.8	3
5	60094	1536.1	5
5	60096	1536.2	1
5	60134	1537.1	6
5	60212	1539.1	3
5	60310	1541.5	1
5	60388	1543.5	3
5	60482	1545.8	3
5	60594	1548.6	1
5	60676	1550.7	2
5	60812	1554.1	6
5	61176	1563.2	6
5	61306	1566.4	6
5	61360	1567.8	5
5	61442	1569.8	6
5	61506	1571.4	3
5	61648	1575	3
5	61732	1577.1	6
5	62000	1583.8	6
5	62096	1586.2	7
5	62184	1588.4	2
5	62198	1588.7	5
5	62254	1590.1	4
5	62442	1594.8	2
5	62464	1595.4	2
5	62700	1601.3	2
5	62754	1602.6	3
5	62796	1603.7	6
5	62880	1605.8	4
5	62928	1607	5
[...]
11	40022	1034.3	1
11	40156	1037.7	1
11	40240	1039.8	2
11	40498	1046.2	2
11	41068	1060.5	2
11	41140	1062.3	1
11	41208	1064	2
11	41242	1064.8	2
11	41280	1065.8	3
11	41448	1070	3
11	41526	1071.9	3
11	41556	1072.7	2
11	41648	1075	2
11	41700	1076.3	2
11	41770	1078	3
11	41844	1079.9	2
11	41852	1080.1	1
11	41956	1082.7	2
11	41996	1083.7	1
11	42178	1088.2	3
11	42350	1092.5	2
11	42390	1093.5	2
11	42400	1093.8	2
11	42416	1094.2	2
11	42444	1094.9	3
11	42504	1096.4	5
11	42586	1098.4	1
11	42674	1100.6	1
11	42690	1101	2
11	42912	1106.6	4
11	42968	1108	1
11	43078	1110.7	1
11	43294	1116.1	1
11	43374	1118.1	1
11	43620	1124.3	2
11	43740	1127.3	1
11	43816	1129.2	2
11	44272	1140.6	5
11	44434	1144.6	1
11	44590	1148.5	3
11	44848	1155	3
11	44888	1156	1
11	44890	1156	2
11	44960	1157.8	2
11	45016	1159.2	5
11	45096	1161.2	2
11	45134	1162.1	3
11	45256	1165.2	4
11	45304	1166.4	2
11	45426	1169.4	4
11	45466	1170.4	1
11	45468	1170.5	4
11	45482	1170.8	2
11	45544	1172.4	3
11	45576	1173.2	3
11	45592	1173.6	2
11	45634	1174.6	5
11	45700	1176.3	2
11	45748	1177.5	5
11	45800	1178.8	2
11	45934	1182.1	1
11	45992	1183.6	2
11	46158	1187.7	1
11	46274	1190.6	4
11	46336	1192.2	3
11	46408	1194	1
11	46438	1194.7	1
11	46478	1195.7	4
11	46494	1196.1	2
11	46624	1199.4	1
11	46642	1199.8	2
11	46880	1205.8	5
11	46924	1206.9	2
11	46996	1208.7	4
11	47104	1211.4	5
11	47146	1212.4	2
11	47162	1212.8	2
11	47296	1216.2	4
11	47312	1216.6	2
11	47808	1229	2
11	47848	1230	1
11	47882	1230.8	1
11	47914	1231.6	2
11	47960	1232.8	3
11	47978	1233.2	3
11	48016	1234.2	2
11	48032	1234.6	1
11	48100	1236.3	5
11	48142	1237.3	1
11	48240	1239.8	2
11	48292	1241.1	2
11	48294	1241.1	2
11	48348	1242.5	5
11	48460	1245.3	3
11	48528	1247	1
11	48600	1248.8	1
11	48774	1253.1	2
11	48808	1254	2
11	48848	1255	5
11	48946	1257.4	1
11	49016	1259.2	2
11	49154	1262.6	2
11	49240	1264.8	2
11	49314	1266.6	5
11	49438	1269.7	4
11	49454	1270.1	2
11	49482	1270.8	2
11	49628	1274.5	3
11	49940	1282.3	5
11	49992	1283.6	2
11	50092	1286.1	4
11	50100	1286.3	1
11	50170	1288	2
11	50266	1290.4	1
11	50432	1294.6	2
11	50548	1297.5	1
11	50684	1300.9	2
11	50690	1301	3
11	50768	1303	1
11	50854	1305.1	1
11	50876	1305.7	2
11	50928	1307	2
11	50980	1308.3	2
11	51068	1310.5	2
11	51168	1313	2
11	51216	1314.2	2
11	51252	1315.1	2
11	51254	1315.1	5
11	51342	1317.3	1
11	51478	1320.7	1
11	51534	1322.1	5
11	51558	1322.7	2
11	51918	1331.7	1
11	52012	1334.1	5
11	52028	1334.5	2
11	52216	1339.2	3
11	52682	1350.8	1
11	52736	1352.2	2
11	52752	1352.6	1
11	52794	1353.6	2
11	52796	1353.7	3
11	52932	1357.1	3
11	53094	1361.1	5
11	53284	1365.9	3
11	53426	1369.4	2
11	53436	1369.7	4
11	53496	1371.2	2
11	53654	1375.1	2
11	53664	1375.4	3
11	53890	1381	3
11	53952	1382.6	3
11	53958	1382.7	5
11	54070	1385.5	3
11	54164	1387.9	4
11	54280	1390.8	1
11	54322	1391.8	4
11	54364	1392.9	2
11	54588	1398.5	1
11	54680	1400.8	2
11	54714	1401.6	1
11	54816	1404.2	5
11	55002	1408.8	1
11	55066	1410.4	2
11	55074	1410.6	1
11	55146	1412.4	2
11	55196	1413.7	2
11	55228	1414.5	2
11	55294	1416.1	2
11	55350	1417.5	2
11	55388	1418.5	2
11	55448	1420	2
11	55740	1427.3	1
11	55788	1428.5	2
11	55842	1429.8	1
11	55868	1430.5	1
11	55906	1431.4	3
11	55914	1431.6	1
11	55936	1432.2	2
11	56054	1435.1	2
11	56242	1439.8	1
11	56544	1447.4	2
11	56546	1447.4	1
11	56592	1448.6	2
11	56606	1448.9	2
11	56640	1449.8	2
11	56684	1450.9	2
11	56754	1452.6	2
11	56878	1455.7	3
11	57018	1459.2	5
11	57210	1464	2
11	57220	1464.3	5
11	57308	1466.5	2
11	57332	1467.1	1
11	57590	1473.5	2
11	57622	1474.3	5
11	57632	1474.6	1
11	57656	1475.2	3
11	57672	1475.6	2
11	57718	1476.7	2
11	57836	1479.7	2
11	58022	1484.3	2
11	58044	1484.9	1
11	58108	1486.5	1
11	58414	1494.1	5
11	58558	1497.7	1
11	58664	1500.4	2
11	58680	1500.8	2
11	59024	1509.4	4
11	59068	1510.5	2
11	59230	1514.5	5
11	59286	1515.9	1
11	59336	1517.2	2
11	59500	1521.3	4
11	59524	1521.9	3
11	59588	1523.5	2
11	59622	1524.3	2
11	59676	1525.7	1
11	59920	1531.8	2
11	59996	1533.7	2
11	60070	1535.5	1
11	60088	1536	3
11	60252	1540.1	3
11	60300	1541.3	1
11	60346	1542.4	2
11	60420	1544.3	2
11	60544	1547.4	1
11	60568	1548	3
11	60874	1555.6	2
11	60952	1557.6	2
11	61040	1559.8	2
11	61256	1565.2	1
11	61304	1566.4	2
11	61314	1566.6	2
11	61396	1568.7	1
11	62160	1587.8	3
11	62176	1588.2	2
11	62206	1588.9	2
11	62208	1589	3
11	62256	1590.2	2
11	62352	1592.6	3
11	62434	1594.6	2
11	62554	1597.6	4
11	62576	1598.2	3
11	62610	1599	1
11	62692	1601.1	3
11	62714	1601.6	1
11	62804	1603.9	2
11	62922	1606.8	4
11	62954	1607.6	5
11	63274	1615.6	1
11	63342	1617.3	2
11	63390	1618.5	5
11	63476	1620.7	2
11	63512	1621.6	3
11	63680	1625.8	1
11	63696	1626.2	2
11	63730	1627	2
11	63750	1627.5	2
11	63798	1628.7	3
11	63804	1628.9	2
11	63838	1629.7	1
11	63854	1630.1	2
11	63886	1630.9	3
11	63938	1632.2	1
11	63992	1633.6	1
11	64018	1634.2	1
11	64038	1634.7	2
11	64084	1635.9	5
11	64122	1636.8	1
11	64132	1637.1	3
11	64256	1640.2	3
11	64298	1641.2	2
11	64348	1642.5	1
11	64394	1643.6	3
11	64580	1648.3	1
11	64746	1652.4	2
11	64830	1654.5	3
11	64862	1655.3	5
11	64894	1656.1	4
11	64960	1657.8	1
11	65052	1660.1	1
11	65162	1662.8	2
11	65228	1664.5	3
11	65274	1665.6	5
11	65340	1667.3	1
11	65378	1668.2	2
11	65402	1668.8	3
11	65434	1669.6	1
11	65482	1670.8	2
11	65568	1673	2
11	65578	1673.2	5
11	65592	1673.6	3
11	65664	1675.4	2
11	65712	1676.6	5
11	65782	1678.3	5
11	65812	1679.1	2
11	65986	1683.4	1
11	66072	1685.6	2
11	66182	1688.3	5
11	66206	1688.9	2
11	66270	1690.5	2
11	66446	1694.9	2
11	66462	1695.3	2
11	66506	1696.4	2
11	66762	1702.8	3
11	66792	1703.6	1
11	66798	1703.7	3
11	66808	1704	2
11	66864	1705.4	1
11	67274	1715.6	3
11	67350	1717.5	5
11	67498	1721.2	1
11	67538	1722.2	3
11	67568	1723	1
11	67926	1731.9	2
11	67996	1733.7	1
11	68034	1734.6	4
11	68048	1735	2
11	68232	1739.6	2
11	68264	1740.4	2
11	68370	1743	2
11	68442	1744.8	2
11	68460	1745.3	3
11	68510	1746.5	2
11	68644	1749.9	4
11	68680	1750.8	1
11	68838	1754.7	1
11	68916	1756.7	1
11	69010	1759	2
11	69128	1762	5
11	69160	1762.8	1
11	69200	1763.8	2
11	69356	1767.7	3
11	69460	1770.3	3
11	69516	1771.7	3
11	69566	1772.9	1
11	69582	1773.3	2
11	69616	1774.2	3
11	69630	1774.5	1
11	69680	1775.8	4
11	69870	1780.5	1
11	69892	1781.1	2
11	69988	1783.5	3
11	70018	1784.2	2
11	70110	1786.5	2
11	70200	1788.8	5
11	70206	1788.9	5
11	70328	1792	3
11	70962	1807.8	2
11	71056	1810.2	2
11	71058	1810.2	2
11	71138	1812.2	2
11	71210	1814	2
11	71300	1816.3	4
11	71322	1816.8	2
11	71344	1817.4	2
11	71376	1818.2	4
12	709	31.4	2
12	1130	49.8	1
12	1752	78.3	1
12	1780	79.7	1
12	1810	81.2	1
12	1994	85.9	3
12	2018	86.5	3
12	2122	88.9	1
12	2318	93.6	2
12	2539	98.7	4
12	2824	105.5	4
12	2867	106.5	1
12	2879	106.8	1
12	2901	107.4	1
12	3008	109.9	4
12	3023	110.2	3
12	3135	113	2
12	3263	115.8	3
12	3269	115.9	3
12	3325	117.3	3
12	3375	118.6	4
12	3451	120.4	1
12	3611	124.4	2
12	3718	126.9	3
12	3752	127.8	2
12	3806	129.1	3
12	3926	132.1	4
12	4000	134	3
12	4034	134.8	3
12	4102	136.5	2
12	4179	138.4	2
12	4223	139.5	3
12	4377	143.3	4
12	4565	148	1
12	4695	151.2	1
12	4741	152.4	2
12	4823	154.4	3
12	4845	155	2
12	4879	155.8	2
12	4885	156	4
12	4917	156.8	3
12	5100	161.4	2
12	5118	161.8	3
12	5190	163.6	2
12	5334	167.2	1
12	5438	169.8	2
12	5656	175.3	2
12	5706	176.5	3
12	5800	178.9	3
12	5962	182.9	4
12	6142	187.4	1
12	6160	187.9	2
12	6236	189.8	2
12	6400	193.9	1
12	6410	194.1	3
12	6543	197.5	1
12	6594	198.6	3
12	6640	199.8	2
12	6688	201	3
12	6702	201.3	3
12	6742	202.3	4
12	6780	203.3	3
12	6902	206.3	2
12	7196	213.7	3
12	7398	218.7	3
12	7566	222.9	1
12	7646	224.9	1
12	7798	228.7	2
12	7956	232.7	2
12	7964	232.9	1
12	8082	235.8	2
12	8296	241.2	2
12	8346	242.4	2
12	8366	242.9	1
12	8532	247.1	3
12	8638	249.7	1
12	8692	251.1	3
12	8732	252.1	1
12	8854	255.1	2
12	9044	259.9	1
12	9068	260.5	3
12	9084	260.9	2
12	9130	262	3
12	9352	267.6	2
12	9462	270.3	2
12	9520	271.8	2
12	9550	272.5	3
12	9680	275.8	3
12	9710	276.5	3
12	9718	276.7	1
12	9778	278.2	2
12	9922	281.8	1
12	9954	282.6	3
12	10008	284	1
12	10042	284.8	2
12	10054	285.1	2
12	10084	285.9	1
12	10118	286.7	2
12	10152	287.6	2
12	10158	287.7	3
12	10170	288	2
12	10262	290.3	2
12	10348	292.5	3
12	10664	300.4	1
12	10876	305.7	2
12	10900	306.3	3
12	11002	308.8	3
12	11082	310.8	3
12	11084	310.9	4
12	11130	312	4
12	11218	314.2	1
12	11258	315.2	2
12	11306	316.4	1
12	11402	318.8	3
12	11418	319.2	2
12	11442	319.8	2
12	11518	321.7	1
12	11654	325.1	3
12	11660	325.3	2
12	11684	325.9	1
12	11926	331.9	2
12	11954	332.6	2
12	11984	333.4	1
12	12018	334.2	3
12	12104	336.4	2
12	12286	340.9	1
12	12408	344	3
12	12422	344.3	3
12	12432	344.6	1
12	12560	347.8	3
12	12658	350.2	2
12	12708	351.5	4
12	12710	351.5	3
12	13144	362.4	2
12	13158	362.7	3
12	13182	363.3	3
12	13272	365.6	3
12	13344	367.4	2
12	13422	369.3	2
12	13462	370.3	3
12	13544	372.4	4
12	13582	373.3	2
12	13774	378.1	2
12	13804	378.9	2
12	13956	382.7	4
12	13974	383.1	2
12	14032	384.6	4
12	14086	385.9	2
12	14116	386.7	2
12	14130	387	1
12	14466	395.4	4
12	14528	397	2
12	14634	399.6	2
12	14716	401.7	1
12	14746	402.4	3
12	14868	405.5	2
12	14956	407.7	2
12	14968	408	2
12	15032	409.6	2
12	15104	411.4	3
12	15210	414	2
12	15258	415.2	4
12	15664	425.4	2
12	15714	426.6	1
12	15768	428	2
12	15816	429.2	2
12	15866	430.4	2
12	16052	435.1	1
12	16108	436.5	2
12	16110	436.5	3
12	16162	437.8	3
12	16176	438.2	1
12	16198	438.7	2
12	16220	439.3	1
12	16238	439.7	4
12	16260	440.3	2
12	16432	444.6	1
12	16478	445.7	2
12	16726	451.9	4
12	16990	458.5	1
12	17170	463	3
12	17404	468.9	1
12	17614	474.1	2
12	17628	474.5	1
12	17644	474.9	2
12	17722	476.8	2
12	17868	480.5	3
12	17884	480.9	2
12	18160	487.8	1
12	18162	487.8	2
12	18178	488.2	2
12	18364	492.9	1
12	18472	495.6	1
12	18512	496.6	4
12	18718	501.7	1
12	18750	502.5	1
12	18760	502.8	3
12	18910	506.5	1
12	18982	508.3	2
12	18988	508.5	1
12	19340	517.3	1
12	19370	518	4
12	19402	518.8	3
12	19530	522	2
12	19620	524.3	2
12	19676	525.7	2
12	19714	526.6	1
12	19756	527.7	2
12	19802	528.8	2
12	19946	532.4	1
12	20048	535	4
12	20142	537.3	3
12	20210	539	2
12	20262	540.3	2
12	20386	543.4	2
12	20500	546.3	2
12	20514	546.6	3
12	20628	549.5	2
12	20630	549.5	3
12	20728	552	2
12	20788	553.5	4
12	20874	555.6	2
12	20900	556.3	3
12	20932	557.1	2
12	20956	557.7	2
12	21004	558.9	2
12	21078	560.7	1
12	21140	562.3	2
12	21388	568.5	1
12	21428	569.5	3
12	21444	569.9	1
12	21458	570.2	1
12	21686	575.9	1
12	21720	576.8	3
12	21894	581.1	2
12	21932	582.1	4
12	22094	586.1	2
12	22154	587.6	2
12	22338	592.2	2
12	22404	593.9	2
12	22586	598.4	1
12	22612	599.1	3
12	22620	599.3	1
12	22634	599.6	2
12	22690	601	4
12	22726	601.9	2
12	22792	603.6	2
12	22866	605.4	2
12	22946	607.4	3
12	23004	608.9	3
12	23044	609.9	1
12	23046	609.9	2
12	23152	612.6	2
12	23158	612.7	3
12	23212	614.1	2
12	23248	615	2
12	23316	616.7	1
12	23406	618.9	2
12	23418	619.2	2
12	23470	620.5	1
12	23510	621.5	2
12	23526	621.9	2
12	23528	622	4
12	23568	623	3
12	23610	624	1
12	23620	624.3	4
12	23634	624.6	3
12	23834	629.6	1
12	23966	632.9	2
12	24038	634.7	2
12	24078	635.7	3
12	24094	636.1	1
12	24452	645.1	1
12	24486	645.9	2
12	24508	646.5	4
12	24538	647.2	3
12	24704	651.4	1
12	24752	652.6	4
12	24948	657.5	3
12	24964	657.9	2
12	24966	657.9	1
12	25080	660.8	4
12	25170	663	4
12	25244	664.9	2
12	25338	667.2	3
12	25458	670.2	1
12	25506	671.4	1
12	25718	676.7	2
12	25770	678	2
12	26114	686.6	3
12	26138	687.2	2
12	26572	698.1	3
12	26618	699.2	2
12	26780	703.3	3
12	26854	705.1	3
12	26944	707.4	3
12	27054	710.1	3
12	27204	713.9	3
12	27476	720.7	2
12	27680	725.8	2
12	27712	726.6	1
12	27752	727.6	1
12	27850	730	2
12	27916	731.7	2
12	28018	734.2	1
12	28102	736.3	2
12	28126	736.9	3
12	28176	738.2	4
12	28274	740.6	3
12	28338	742.2	1
12	28480	745.8	1
12	28516	746.7	2
12	28580	748.3	3
12	28620	749.3	2
12	28674	750.6	1
12	28850	755	2
12	28902	756.3	1
12	28928	757	1
12	28976	758.2	2
12	28998	758.7	2
12	29224	764.4	3
12	29470	770.5	3
12	29726	776.9	2
12	29902	781.3	1
12	29980	783.3	3
12	29990	783.5	2
12	30350	792.5	1
12	30440	794.8	2
12	30472	795.6	1
12	30538	797.2	2
12	30918	806.7	2
12	30942	807.3	3
12	31032	809.6	2
12	31130	812	3
12	31288	816	3
12	31296	816.2	1
12	31302	816.3	1
12	31312	816.6	2
12	31442	819.8	3
12	31518	821.7	2
12	31588	823.5	3
12	31648	825	4
12	31664	825.4	2
12	31734	827.1	2
12	31838	829.7	4
12	31886	830.9	2
12	31918	831.7	3
12	31998	833.7	4
12	32112	836.6	1
12	32220	839.3	1
12	32252	840.1	2
12	32334	842.1	2
12	32340	842.3	3
12	32454	845.1	4
12	32536	847.2	2
12	32758	852.7	3
12	32784	853.4	4
12	32810	854	2
12	32922	856.8	1
12	32984	858.4	2
12	33216	864.2	3
12	33232	864.6	2
12	33254	865.1	2
12	33288	866	4
12	33344	867.4	1
12	33424	869.4	3
12	33488	871	3
12	33606	873.9	2
12	33630	874.5	3
12	34024	884.4	3
12	34126	886.9	3
12	34188	888.5	1
12	34450	895	2
12	34480	895.8	4
12	34648	900	1
12	34882	905.8	3
12	35026	909.4	4
12	35226	914.4	4
12	35250	915	3
12	35348	917.5	2
12	35460	920.3	2
12	35710	926.5	1
12	35740	927.3	3
12	35762	927.8	1
12	35936	932.2	2
12	36262	940.3	3
12	36562	947.8	3
12	36690	951	1
12	36748	952.5	2
12	36874	955.6	1
12	36920	956.8	2
12	36966	957.9	1
12	37004	958.9	1
12	37062	960.3	3
12	37166	962.9	2
12	37292	966.1	1
12	37372	968.1	2
12	37424	969.4	3
12	37498	971.2	2
12	37500	971.3	1
12	37546	972.4	3
12	37610	974	3
12	37618	974.2	1
12	37634	974.6	1
12	37666	975.4	3
12	37690	976	2
12	37780	978.3	4
12	37876	980.7	4
12	37934	982.1	2
12	38262	990.3	1
12	38326	991.9	2
12	38344	992.4	4
12	38540	997.3	3
12	38588	998.5	2
12	38726	1001.9	1
12	38736	1002.2	2
12	38810	1004	3
12	38864	1005.4	2
12	38902	1006.3	1
12	38910	1006.5	1
12	38920	1006.8	2
12	39180	1013.3	1
12	39192	1013.6	2
12	39198	1013.7	2
12	39444	1019.9	3
12	39498	1021.2	1
12	39546	1022.4	4
12	39604	1023.9	2
12	39646	1024.9	1
12	39660	1025.3	3
12	39684	1025.9	1
12	39708	1026.5	1
12	39710	1026.5	2
12	39750	1027.5	2
12	39784	1028.4	3
12	39810	1029	2
12	39872	1030.6	3
12	39954	1032.6	4
12	40066	1035.4	3
12	40294	1041.1	4
12	40430	1044.5	3
12	40804	1053.9	2
12	40894	1056.1	2
12	41028	1059.5	1
12	41052	1060.1	3
12	41260	1065.3	1
12	41300	1066.3	2
12	41358	1067.7	4
12	41364	1067.9	2
12	41428	1069.5	1
12	41536	1072.2	4
12	41806	1078.9	3
12	41832	1079.6	3
12	41846	1079.9	3
12	41886	1080.9	4
12	41908	1081.5	2
12	42022	1084.3	2
12	42154	1087.6	2
12	42260	1090.3	4
12	42404	1093.9	1
12	42518	1096.7	2
12	42616	1099.2	2
12	42670	1100.5	4
12	42800	1103.8	2
12	42816	1104.2	2
12	42882	1105.8	2
12	42946	1107.4	2
12	42972	1108.1	1
12	43058	1110.2	2
12	43082	1110.8	1
12	43140	1112.3	3
12	43170	1113	2
12	43250	1115	2
12	43288	1116	3
12	43538	1122.2	1
12	43544	1122.4	2
12	43578	1123.2	2
12	43614	1124.1	2
12	43736	1127.2	3
12	43752	1127.6	2
12	43862	1130.3	2
12	43914	1131.6	3
12	44164	1137.9	1
12	44302	1141.3	4
12	44422	1144.3	2
12	44432	1144.6	4
12	44438	1144.7	1
12	44532	1147.1	2
12	44580	1148.3	3
12	44628	1149.5	3
12	44828	1154.5	2
12	44894	1156.1	1
12	44906	1156.4	2
12	44938	1157.2	2
12	44972	1158.1	2
12	45094	1161.1	2
12	45114	1161.6	2
12	45204	1163.9	1
12	45382	1168.3	3
12	45462	1170.3	2
12	45502	1171.3	3
12	45524	1171.9	1
12	45704	1176.4	1
12	45752	1177.6	1
12	45880	1180.8	1
12	45956	1182.7	2
12	45996	1183.7	1
12	46154	1187.6	2
12	46212	1189.1	1
12	46434	1194.6	1
12	46510	1196.5	2
12	46596	1198.7	3
12	46620	1199.3	3
12	46654	1200.1	2
12	46798	1203.7	2
12	46914	1206.6	2
12	47026	1209.4	2
12	47066	1210.4	4
12	47446	1219.9	2
12	47452	1220.1	2
12	47464	1220.4	1
12	47568	1223	1
12	47734	1227.1	3
12	47836	1229.7	4
12	47902	1231.3	3
12	48028	1234.5	2
12	48106	1236.4	1
12	48180	1238.3	1
12	48392	1243.6	3
12	48722	1251.8	2
12	48756	1252.7	2
12	48852	1255.1	1
12	49056	1260.2	1
12	49080	1260.8	3
12	49296	1266.2	2
12	49336	1267.2	1
12	49526	1271.9	2
12	49662	1275.3	3
12	49722	1276.8	1
12	49762	1277.8	2
12	49906	1281.4	4
12	50010	1284	3
12	50012	1284.1	2
12	50064	1285.4	2
12	50096	1286.2	1
12	50190	1288.5	2
12	50286	1290.9	3
12	50302	1291.3	2
12	50422	1294.3	2
12	50510	1296.5	2
12	50608	1299	2
12	50650	1300	1
12	50672	1300.6	4
12	50756	1302.7	3
12	50850	1305	2
12	51024	1309.4	4
12	51056	1310.2	2
12	51084	1310.9	1
12	51196	1313.7	2
12	51426	1319.4	3
12	51476	1320.7	3
12	51482	1320.8	1
12	51564	1322.9	1
12	51660	1325.3	2
12	51700	1326.3	3
12	51844	1329.9	2
12	51846	1329.9	2
12	52088	1336	2
12	52236	1339.7	3
12	52266	1340.4	3
12	52386	1343.4	3
12	52452	1345.1	2
12	52490	1346	2
12	52532	1347.1	2
12	52566	1347.9	3
12	52678	1350.7	4
12	52748	1352.5	2
12	52776	1353.2	2
12	53050	1360	2
12	53056	1360.2	2
12	53360	1367.8	2
12	53408	1369	2
12	53514	1371.6	4
12	53560	1372.8	1
12	53620	1374.3	1
12	53668	1375.5	1
12	53692	1376.1	3
12	53758	1377.7	2
12	53812	1379.1	2
12	53876	1380.7	3
12	54120	1386.8	3
12	54142	1387.3	1
12	54182	1388.3	3
12	54222	1389.3	4
12	54276	1390.7	2
12	54436	1394.7	2
12	54536	1397.2	3
12	54598	1398.7	1
12	54774	1403.1	2
12	54820	1404.3	1
12	54916	1406.7	3
12	54958	1407.7	2
12	54998	1408.7	2
12	55038	1409.7	2
12	55070	1410.5	1
12	55088	1411	2
12	55322	1416.8	2
12	55336	1417.2	2
12	55370	1418	2
12	55400	1418.8	1
12	55506	1421.4	1
12	55562	1422.8	2
12	55634	1424.6	2
12	55686	1425.9	1
12	55688	1426	3
12	55838	1429.7	3
12	55856	1430.2	1
12	55910	1431.5	1
12	55918	1431.7	1
12	55940	1432.3	1
12	55964	1432.9	3
12	55988	1433.5	3
12	56112	1436.6	1
12	56128	1437	2
12	56130	1437	2
12	56208	1439	4
12	56278	1440.7	2
12	56352	1442.6	4
12	56668	1450.5	2
12	56788	1453.5	1
12	56840	1454.8	4
12	56850	1455	3
12	56974	1458.1	3
12	57176	1463.2	4
12	57240	1464.8	2
12	57280	1465.8	2
12	57296	1466.2	2
12	57404	1468.9	4
12	57452	1470.1	3
12	57544	1472.4	3
12	57628	1474.5	3
12	57728	1477	2
12	57866	1480.4	2
12	57952	1482.6	2
12	58008	1484	3
12	58024	1484.4	2
12	58230	1489.5	2
12	58312	1491.6	2
12	58342	1492.3	4
12	58570	1498	1
12	58620	1499.3	3
12	58622	1499.3	1
12	58638	1499.7	2
12	58778	1503.2	1
12	58810	1504	3
12	58826	1504.4	2
12	58832	1504.6	3
12	58874	1505.6	2
12	59282	1515.8	2
12	59354	1517.6	4
12	59372	1518.1	1
12	59384	1518.4	2
12	59390	1518.5	2
12	59552	1522.6	2
12	59626	1524.4	1
12	59664	1525.4	3
12	59716	1526.7	2
12	59826	1529.4	3
12	59878	1530.7	2
12	59924	1531.9	1
12	60010	1534	2
12	60092	1536.1	1
12	60124	1536.9	3
12	60296	1541.2	4
12	60306	1541.4	4
12	60318	1541.7	2
12	60480	1545.8	2
12	60590	1548.5	4
12	60878	1555.7	1
12	60918	1556.7	3
12	61068	1560.5	3
12	61208	1564	3
12	61238	1564.7	2
12	61268	1565.5	2
12	61368	1568	2
12	61392	1568.6	3
12	61412	1569.1	1
12	61488	1571	1
12	61678	1575.7	1
12	61718	1576.7	2
12	61820	1579.3	3
12	61868	1580.5	2
12	62286	1590.9	3
12	62526	1596.9	3
12	62614	1599.1	1
12	62710	1601.5	4
12	62782	1603.3	3
12	62936	1607.2	2
12	63038	1609.7	2
12	63246	1614.9	2
12	63492	1621.1	1
12	63550	1622.5	2
12	63584	1623.4	1
12	63652	1625.1	2
12	63668	1625.5	2
12	63768	1628	2
12	63792	1628.6	3
12	63834	1629.6	2
12	63972	1633.1	1
12	63988	1633.5	2
12	64040	1634.8	2
12	64088	1636	1
12	64260	1640.3	1
12	64344	1642.4	2
12	64406	1643.9	2
12	64576	1648.2	1
12	64656	1650.2	2
12	64762	1652.8	2
12	64924	1656.9	3
12	64940	1657.3	2
12	65022	1659.3	3
12	65206	1663.9	1
12	65278	1665.7	1
12	65288	1666	3
12	65328	1667	1
12	65350	1667.5	4
12	65444	1669.9	3
12	65454	1670.1	3
12	65470	1670.5	2
12	65590	1673.5	2
12	65630	1674.5	1
12	65714	1676.6	2
12	65768	1678	1
12	65848	1680	2
12	65918	1681.7	4
12	65964	1682.9	1
12	65982	1683.3	2
12	66448	1695	1
12	66538	1697.2	2
12	66560	1697.8	2
12	66598	1698.7	2
12	66610	1699	2
12	66726	1701.9	3
12	66788	1703.5	2
12	66978	1708.2	2
12	67034	1709.6	2
12	67146	1712.4	2
12	67292	1716.1	3
12	67306	1716.4	2
12	67316	1716.7	3
12	67478	1720.7	3
12	67542	1722.3	1
12	67792	1728.6	2
12	67932	1732.1	1
12	67992	1733.6	1
12	68092	1736.1	3
12	68194	1738.6	2
12	68308	1741.5	2
12	68356	1742.7	2
12	68496	1746.2	4
12	68616	1749.2	2
12	68718	1751.7	4
12	68726	1751.9	1
12	69094	1761.1	2
12	69156	1762.7	1
12	69170	1763	3
12	69234	1764.6	4
12	69384	1768.4	3
12	69386	1768.4	2
12	69418	1769.2	3
12	69482	1770.8	2
12	69596	1773.7	3
12	69618	1774.2	2
12	69750	1777.5	3
12	69874	1780.6	1
12	70114	1786.6	1
12	70156	1787.7	3
12	70226	1789.4	2
12	70228	1789.5	2
12	70370	1793	3
12	70382	1793.3	2
12	70452	1795.1	2
12	70454	1795.1	3
12	70590	1798.5	1
12	70592	1798.6	3
12	70802	1803.8	2
12	70860	1805.3	2
12	70964	1807.9	4
12	71036	1809.7	3
12	71092	1811.1	3
12	71110	1811.5	3
12	71174	1813.1	2
12	71230	1814.5	2
12	71274	1815.6	1
12	71302	1816.3	2
12	71366	1817.9	2

